MODEL 1
REMARK VINA RESULT:      -8.9      0.000      0.000
REMARK  3 active torsions:
REMARK  status: ('A' for Active; 'I' for Inactive)
REMARK    1  A    between atoms: C_2  and  C_3 
REMARK    2  A    between atoms: C_2  and  N_12 
REMARK    3  A    between atoms: C_3  and  C_4 
REMARK       I    between atoms: N_12  and  C_13 
REMARK       I    between atoms: C_13  and  N_15 
REMARK       I    between atoms: N_15  and  C_16 
ROOT
HETATM    1  N   ZIN N   1      56.766 -32.581  -0.554  0.00  0.00    -0.338 N 
HETATM    2  C   ZIN N   1      57.617 -33.388   0.136  0.00  0.00     0.334 C 
HETATM    3  O   ZIN N   1      58.117 -32.992   1.181  0.00  0.00    -0.247 OA
HETATM    4  N   ZIN N   1      57.897 -34.639  -0.330  0.00  0.00    -0.139 N 
HETATM    5  C   ZIN N   1      58.762 -35.538   0.355  0.00  0.00     0.714 A 
HETATM    6  N   ZIN N   1      59.381 -35.284   1.521  0.00  0.00    -0.118 N 
ATOM      7  HN  ZIN N   1      59.329 -34.430   2.077  1.00  0.00     0.207 HD
HETATM    8  N   ZIN N   1      60.074 -36.377   1.793  0.00  0.00    -0.212 N 
HETATM    9  N   ZIN N   1      59.886 -37.269   0.830  0.00  0.00     0.009 NA
HETATM   10  N   ZIN N   1      59.068 -36.768  -0.082  0.00  0.00    -0.113 N 
ATOM     11  HN  ZIN N   1      58.740 -37.222  -0.935  1.00  0.00     0.203 HD
HETATM   12  H   ZIN N   1      56.330 -32.936  -1.421  0.00  0.00     0.164 HD
HETATM   13  H   ZIN N   1      57.468 -34.956  -1.214  0.00  0.00     0.189 HD
HETATM   14  H   ZIN N   1      60.640 -36.508   2.587  0.00  0.00     0.206 HD
ENDROOT
BRANCH   1  15
HETATM   15  C   ZIN N   1      56.423 -31.245  -0.081  0.00  0.00     0.087 C 
HETATM   16  C   ZIN N   1      56.460 -30.269  -1.259  0.00  0.00     0.032 C 
BRANCH  15  17
HETATM   17  C   ZIN N   1      55.039 -31.245   0.597  0.00  0.00     0.083 C 
BRANCH  17  18
HETATM   18  C   ZIN N   1      53.946 -31.478  -0.420  0.00  0.00     0.026 A 
HETATM   19  N   ZIN N   1      53.240 -30.423  -0.915  0.00  0.00    -0.367 N 
HETATM   20  C   ZIN N   1      52.274 -30.596  -1.850  0.00  0.00     0.105 A 
ATOM     21  HN  ZIN N   1      53.444 -29.483  -0.575  1.00  0.00     0.165 HD
HETATM   22  C   ZIN N   1      51.982 -31.881  -2.307  0.00  0.00     0.104 A 
HETATM   23  N   ZIN N   1      52.674 -32.941  -1.811  0.00  0.00    -0.372 N 
HETATM   24  C   ZIN N   1      53.651 -32.769  -0.882  0.00  0.00     0.112 A 
ATOM     25  HN  ZIN N   1      52.456 -33.881  -2.142  1.00  0.00     0.164 HD
ENDBRANCH  17  18
ENDBRANCH  15  17
ENDBRANCH   1  15
TORSDOF 3
ENDMDL
MODEL 2
REMARK VINA RESULT:      -8.6      2.041      3.094
REMARK  3 active torsions:
REMARK  status: ('A' for Active; 'I' for Inactive)
REMARK    1  A    between atoms: C_2  and  C_3 
REMARK    2  A    between atoms: C_2  and  N_12 
REMARK    3  A    between atoms: C_3  and  C_4 
REMARK       I    between atoms: N_12  and  C_13 
REMARK       I    between atoms: C_13  and  N_15 
REMARK       I    between atoms: N_15  and  C_16 
ROOT
HETATM    1  N   ZIN N   1      56.725 -32.487  -0.576  0.00  0.00    -0.338 N 
HETATM    2  C   ZIN N   1      57.587 -33.291   0.104  0.00  0.00     0.334 C 
HETATM    3  O   ZIN N   1      58.138 -32.873   1.115  0.00  0.00    -0.247 OA
HETATM    4  N   ZIN N   1      57.821 -34.562  -0.332  0.00  0.00    -0.139 N 
HETATM    5  C   ZIN N   1      58.694 -35.458   0.346  0.00  0.00     0.714 A 
HETATM    6  N   ZIN N   1      59.367 -35.182   1.477  0.00  0.00    -0.118 N 
ATOM      7  HN  ZIN N   1      59.355 -34.310   2.007  1.00  0.00     0.207 HD
HETATM    8  N   ZIN N   1      60.047 -36.281   1.756  0.00  0.00    -0.212 N 
HETATM    9  N   ZIN N   1      59.800 -37.199   0.831  0.00  0.00     0.009 NA
HETATM   10  N   ZIN N   1      58.956 -36.708  -0.063  0.00  0.00    -0.113 N 
ATOM     11  HN  ZIN N   1      58.584 -37.181  -0.887  1.00  0.00     0.203 HD
HETATM   12  H   ZIN N   1      56.247 -32.859  -1.413  0.00  0.00     0.164 HD
HETATM   13  H   ZIN N   1      57.350 -34.897  -1.188  0.00  0.00     0.189 HD
HETATM   14  H   ZIN N   1      60.642 -36.399   2.530  0.00  0.00     0.206 HD
ENDROOT
BRANCH   1  15
HETATM   15  C   ZIN N   1      56.431 -31.130  -0.134  0.00  0.00     0.087 C 
HETATM   16  C   ZIN N   1      56.549 -30.175  -1.324  0.00  0.00     0.032 C 
BRANCH  15  17
HETATM   17  C   ZIN N   1      55.028 -31.056   0.501  0.00  0.00     0.083 C 
BRANCH  17  18
HETATM   18  C   ZIN N   1      55.023 -31.706   1.864  0.00  0.00     0.026 A 
HETATM   19  N   ZIN N   1      55.941 -31.335   2.799  0.00  0.00    -0.367 N 
HETATM   20  C   ZIN N   1      55.944 -31.878   4.042  0.00  0.00     0.105 A 
ATOM     21  HN  ZIN N   1      56.641 -30.632   2.560  1.00  0.00     0.165 HD
HETATM   22  C   ZIN N   1      54.998 -32.849   4.368  0.00  0.00     0.104 A 
HETATM   23  N   ZIN N   1      54.085 -33.234   3.438  0.00  0.00    -0.372 N 
HETATM   24  C   ZIN N   1      54.073 -32.683   2.196  0.00  0.00     0.112 A 
ATOM     25  HN  ZIN N   1      53.397 -33.949   3.676  1.00  0.00     0.164 HD
ENDBRANCH  17  18
ENDBRANCH  15  17
ENDBRANCH   1  15
TORSDOF 3
ENDMDL
MODEL 3
REMARK VINA RESULT:      -8.4      8.620     11.352
REMARK  3 active torsions:
REMARK  status: ('A' for Active; 'I' for Inactive)
REMARK    1  A    between atoms: C_2  and  C_3 
REMARK    2  A    between atoms: C_2  and  N_12 
REMARK    3  A    between atoms: C_3  and  C_4 
REMARK       I    between atoms: N_12  and  C_13 
REMARK       I    between atoms: C_13  and  N_15 
REMARK       I    between atoms: N_15  and  C_16 
ROOT
HETATM    1  N   ZIN N   1      48.048 -31.189  -1.408  0.00  0.00    -0.338 N 
HETATM    2  C   ZIN N   1      46.805 -31.117  -0.858  0.00  0.00     0.334 C 
HETATM    3  O   ZIN N   1      46.588 -30.323   0.049  0.00  0.00    -0.247 OA
HETATM    4  N   ZIN N   1      45.805 -31.916  -1.327  0.00  0.00    -0.139 N 
HETATM    5  C   ZIN N   1      44.481 -31.874  -0.809  0.00  0.00     0.714 A 
HETATM    6  N   ZIN N   1      44.054 -31.055   0.169  0.00  0.00    -0.118 N 
ATOM      7  HN  ZIN N   1      44.602 -30.359   0.677  1.00  0.00     0.207 HD
HETATM    8  N   ZIN N   1      42.775 -31.344   0.335  0.00  0.00    -0.212 N 
HETATM    9  N   ZIN N   1      42.428 -32.305  -0.511  0.00  0.00     0.009 NA
HETATM   10  N   ZIN N   1      43.478 -32.653  -1.239  0.00  0.00    -0.113 N 
ATOM     11  HN  ZIN N   1      43.515 -33.363  -1.970  1.00  0.00     0.203 HD
HETATM   12  H   ZIN N   1      48.212 -31.845  -2.190  0.00  0.00     0.164 HD
HETATM   13  H   ZIN N   1      46.006 -32.581  -2.091  0.00  0.00     0.189 HD
HETATM   14  H   ZIN N   1      42.174 -30.913   0.984  0.00  0.00     0.206 HD
ENDROOT
BRANCH   1  15
HETATM   15  C   ZIN N   1      49.141 -30.340  -0.951  0.00  0.00     0.087 C 
HETATM   16  C   ZIN N   1      50.383 -31.201  -0.715  0.00  0.00     0.032 C 
BRANCH  15  17
HETATM   17  C   ZIN N   1      49.425 -29.221  -1.972  0.00  0.00     0.083 C 
BRANCH  17  18
HETATM   18  C   ZIN N   1      48.964 -27.884  -1.443  0.00  0.00     0.026 A 
HETATM   19  N   ZIN N   1      47.637 -27.578  -1.430  0.00  0.00    -0.367 N 
HETATM   20  C   ZIN N   1      47.189 -26.397  -0.934  0.00  0.00     0.105 A 
ATOM     21  HN  ZIN N   1      46.966 -28.251  -1.801  1.00  0.00     0.165 HD
HETATM   22  C   ZIN N   1      48.104 -25.469  -0.440  0.00  0.00     0.104 A 
HETATM   23  N   ZIN N   1      49.431 -25.761  -0.458  0.00  0.00    -0.372 N 
HETATM   24  C   ZIN N   1      49.881 -26.948  -0.944  0.00  0.00     0.112 A 
ATOM     25  HN  ZIN N   1      50.100 -25.078  -0.102  1.00  0.00     0.164 HD
ENDBRANCH  17  18
ENDBRANCH  15  17
ENDBRANCH   1  15
TORSDOF 3
ENDMDL
MODEL 4
REMARK VINA RESULT:      -8.3      3.558      7.077
REMARK  3 active torsions:
REMARK  status: ('A' for Active; 'I' for Inactive)
REMARK    1  A    between atoms: C_2  and  C_3 
REMARK    2  A    between atoms: C_2  and  N_12 
REMARK    3  A    between atoms: C_3  and  C_4 
REMARK       I    between atoms: N_12  and  C_13 
REMARK       I    between atoms: C_13  and  N_15 
REMARK       I    between atoms: N_15  and  C_16 
ROOT
HETATM    1  N   ZIN N   1      55.521 -33.141  -0.513  0.00  0.00    -0.338 N 
HETATM    2  C   ZIN N   1      54.256 -32.972  -0.988  0.00  0.00     0.334 C 
HETATM    3  O   ZIN N   1      53.356 -33.699  -0.588  0.00  0.00    -0.247 OA
HETATM    4  N   ZIN N   1      53.995 -31.986  -1.893  0.00  0.00    -0.139 N 
HETATM    5  C   ZIN N   1      52.693 -31.745  -2.411  0.00  0.00     0.714 A 
HETATM    6  N   ZIN N   1      51.583 -32.426  -2.074  0.00  0.00    -0.118 N 
ATOM      7  HN  ZIN N   1      51.509 -33.201  -1.415  1.00  0.00     0.207 HD
HETATM    8  N   ZIN N   1      50.609 -31.879  -2.782  0.00  0.00    -0.212 N 
HETATM    9  N   ZIN N   1      51.102 -30.897  -3.525  0.00  0.00     0.009 NA
HETATM   10  N   ZIN N   1      52.404 -30.793  -3.311  0.00  0.00    -0.113 N 
ATOM     11  HN  ZIN N   1      53.050 -30.129  -3.738  1.00  0.00     0.203 HD
HETATM   12  H   ZIN N   1      56.267 -32.505  -0.837  0.00  0.00     0.164 HD
HETATM   13  H   ZIN N   1      54.768 -31.383  -2.220  0.00  0.00     0.189 HD
HETATM   14  H   ZIN N   1      49.666 -32.157  -2.759  0.00  0.00     0.206 HD
ENDROOT
BRANCH   1  15
HETATM   15  C   ZIN N   1      55.840 -34.169   0.470  0.00  0.00     0.087 C 
HETATM   16  C   ZIN N   1      57.360 -34.317   0.569  0.00  0.00     0.032 C 
BRANCH  15  17
HETATM   17  C   ZIN N   1      55.225 -33.822   1.841  0.00  0.00     0.083 C 
BRANCH  17  18
HETATM   18  C   ZIN N   1      54.887 -35.078   2.608  0.00  0.00     0.026 A 
HETATM   19  N   ZIN N   1      54.534 -36.211   1.940  0.00  0.00    -0.367 N 
HETATM   20  C   ZIN N   1      54.254 -37.363   2.599  0.00  0.00     0.105 A 
ATOM     21  HN  ZIN N   1      54.481 -36.193   0.921  1.00  0.00     0.165 HD
HETATM   22  C   ZIN N   1      54.311 -37.387   3.992  0.00  0.00     0.104 A 
HETATM   23  N   ZIN N   1      54.651 -36.259   4.669  0.00  0.00    -0.372 N 
HETATM   24  C   ZIN N   1      54.944 -35.107   4.009  0.00  0.00     0.112 A 
ATOM     25  HN  ZIN N   1      54.688 -36.276   5.688  1.00  0.00     0.164 HD
ENDBRANCH  17  18
ENDBRANCH  15  17
ENDBRANCH   1  15
TORSDOF 3
ENDMDL
MODEL 5
REMARK VINA RESULT:      -8.2      2.057      2.863
REMARK  3 active torsions:
REMARK  status: ('A' for Active; 'I' for Inactive)
REMARK    1  A    between atoms: C_2  and  C_3 
REMARK    2  A    between atoms: C_2  and  N_12 
REMARK    3  A    between atoms: C_3  and  C_4 
REMARK       I    between atoms: N_12  and  C_13 
REMARK       I    between atoms: C_13  and  N_15 
REMARK       I    between atoms: N_15  and  C_16 
ROOT
HETATM    1  N   ZIN N   1      55.264 -31.109  -1.157  0.00  0.00    -0.338 N 
HETATM    2  C   ZIN N   1      55.635 -32.261  -0.534  0.00  0.00     0.334 C 
HETATM    3  O   ZIN N   1      54.791 -32.940   0.037  0.00  0.00    -0.247 OA
HETATM    4  N   ZIN N   1      56.938 -32.661  -0.561  0.00  0.00    -0.139 N 
HETATM    5  C   ZIN N   1      57.385 -33.864   0.053  0.00  0.00     0.714 A 
HETATM    6  N   ZIN N   1      56.602 -34.742   0.704  0.00  0.00    -0.118 N 
ATOM      7  HN  ZIN N   1      55.595 -34.680   0.855  1.00  0.00     0.207 HD
HETATM    8  N   ZIN N   1      57.415 -35.703   1.109  0.00  0.00    -0.212 N 
HETATM    9  N   ZIN N   1      58.652 -35.425   0.719  0.00  0.00     0.009 NA
HETATM   10  N   ZIN N   1      58.660 -34.280   0.056  0.00  0.00    -0.113 N 
ATOM     11  HN  ZIN N   1      59.464 -33.813  -0.363  1.00  0.00     0.203 HD
HETATM   12  H   ZIN N   1      55.980 -30.557  -1.657  0.00  0.00     0.164 HD
HETATM   13  H   ZIN N   1      57.636 -32.074  -1.045  0.00  0.00     0.189 HD
HETATM   14  H   ZIN N   1      57.144 -36.499   1.619  0.00  0.00     0.206 HD
ENDROOT
BRANCH   1  15
HETATM   15  C   ZIN N   1      53.879 -30.655  -1.170  0.00  0.00     0.087 C 
HETATM   16  C   ZIN N   1      53.838 -29.155  -0.869  0.00  0.00     0.032 C 
BRANCH  15  17
HETATM   17  C   ZIN N   1      53.216 -30.967  -2.526  0.00  0.00     0.083 C 
BRANCH  17  18
HETATM   18  C   ZIN N   1      51.720 -31.101  -2.372  0.00  0.00     0.026 A 
HETATM   19  N   ZIN N   1      50.896 -30.778  -3.407  0.00  0.00    -0.367 N 
HETATM   20  C   ZIN N   1      49.551 -30.916  -3.309  0.00  0.00     0.105 A 
ATOM     21  HN  ZIN N   1      51.301 -30.426  -4.275  1.00  0.00     0.165 HD
HETATM   22  C   ZIN N   1      48.993 -31.383  -2.120  0.00  0.00     0.104 A 
HETATM   23  N   ZIN N   1      49.806 -31.698  -1.078  0.00  0.00    -0.372 N 
HETATM   24  C   ZIN N   1      51.156 -31.572  -1.177  0.00  0.00     0.112 A 
ATOM     25  HN  ZIN N   1      49.397 -32.035  -0.206  1.00  0.00     0.164 HD
ENDBRANCH  17  18
ENDBRANCH  15  17
ENDBRANCH   1  15
TORSDOF 3
ENDMDL
MODEL 6
REMARK VINA RESULT:      -8.1      1.613      2.250
REMARK  3 active torsions:
REMARK  status: ('A' for Active; 'I' for Inactive)
REMARK    1  A    between atoms: C_2  and  C_3 
REMARK    2  A    between atoms: C_2  and  N_12 
REMARK    3  A    between atoms: C_3  and  C_4 
REMARK       I    between atoms: N_12  and  C_13 
REMARK       I    between atoms: C_13  and  N_15 
REMARK       I    between atoms: N_15  and  C_16 
ROOT
HETATM    1  N   ZIN N   1      57.789 -33.792   1.182  0.00  0.00    -0.338 N 
HETATM    2  C   ZIN N   1      58.026 -35.132   1.224  0.00  0.00     0.334 C 
HETATM    3  O   ZIN N   1      57.087 -35.916   1.181  0.00  0.00    -0.247 OA
HETATM    4  N   ZIN N   1      59.307 -35.594   1.298  0.00  0.00    -0.139 N 
HETATM    5  C   ZIN N   1      59.622 -36.982   1.324  0.00  0.00     0.714 A 
HETATM    6  N   ZIN N   1      58.727 -37.984   1.265  0.00  0.00    -0.118 N 
ATOM      7  HN  ZIN N   1      57.712 -37.904   1.196  1.00  0.00     0.207 HD
HETATM    8  N   ZIN N   1      59.442 -39.094   1.317  0.00  0.00    -0.212 N 
HETATM    9  N   ZIN N   1      60.729 -38.786   1.403  0.00  0.00     0.009 NA
HETATM   10  N   ZIN N   1      60.868 -37.470   1.409  0.00  0.00    -0.113 N 
ATOM     11  HN  ZIN N   1      61.738 -36.940   1.466  1.00  0.00     0.203 HD
HETATM   12  H   ZIN N   1      58.591 -33.141   1.193  0.00  0.00     0.164 HD
HETATM   13  H   ZIN N   1      60.087 -34.918   1.336  0.00  0.00     0.189 HD
HETATM   14  H   ZIN N   1      59.076 -40.007   1.293  0.00  0.00     0.206 HD
ENDROOT
BRANCH   1  15
HETATM   15  C   ZIN N   1      56.437 -33.255   1.082  0.00  0.00     0.087 C 
HETATM   16  C   ZIN N   1      55.983 -32.775   2.462  0.00  0.00     0.032 C 
BRANCH  15  17
HETATM   17  C   ZIN N   1      56.380 -32.112   0.050  0.00  0.00     0.083 C 
BRANCH  17  18
HETATM   18  C   ZIN N   1      55.080 -32.150  -0.718  0.00  0.00     0.026 A 
HETATM   19  N   ZIN N   1      54.703 -31.080  -1.472  0.00  0.00    -0.367 N 
HETATM   20  C   ZIN N   1      53.556 -31.095  -2.196  0.00  0.00     0.105 A 
ATOM     21  HN  ZIN N   1      55.296 -30.250  -1.492  1.00  0.00     0.165 HD
HETATM   22  C   ZIN N   1      52.735 -32.221  -2.158  0.00  0.00     0.104 A 
HETATM   23  N   ZIN N   1      53.098 -33.289  -1.401  0.00  0.00    -0.372 N 
HETATM   24  C   ZIN N   1      54.252 -33.281  -0.683  0.00  0.00     0.112 A 
ATOM     25  HN  ZIN N   1      52.494 -34.111  -1.370  1.00  0.00     0.164 HD
ENDBRANCH  17  18
ENDBRANCH  15  17
ENDBRANCH   1  15
TORSDOF 3
ENDMDL
MODEL 7
REMARK VINA RESULT:      -8.0      8.665     12.003
REMARK  3 active torsions:
REMARK  status: ('A' for Active; 'I' for Inactive)
REMARK    1  A    between atoms: C_2  and  C_3 
REMARK    2  A    between atoms: C_2  and  N_12 
REMARK    3  A    between atoms: C_3  and  C_4 
REMARK       I    between atoms: N_12  and  C_13 
REMARK       I    between atoms: C_13  and  N_15 
REMARK       I    between atoms: N_15  and  C_16 
ROOT
HETATM    1  N   ZIN N   1      45.399 -31.943  -1.214  0.00  0.00    -0.338 N 
HETATM    2  C   ZIN N   1      46.393 -31.530  -2.047  0.00  0.00     0.334 C 
HETATM    3  O   ZIN N   1      46.125 -30.815  -3.004  0.00  0.00    -0.247 OA
HETATM    4  N   ZIN N   1      47.683 -31.900  -1.804  0.00  0.00    -0.139 N 
HETATM    5  C   ZIN N   1      48.768 -31.484  -2.625  0.00  0.00     0.714 A 
HETATM    6  N   ZIN N   1      48.668 -30.686  -3.702  0.00  0.00    -0.118 N 
ATOM      7  HN  ZIN N   1      47.820 -30.269  -4.086  1.00  0.00     0.207 HD
HETATM    8  N   ZIN N   1      49.902 -30.557  -4.158  0.00  0.00    -0.212 N 
HETATM    9  N   ZIN N   1      50.730 -31.250  -3.389  0.00  0.00     0.009 NA
HETATM   10  N   ZIN N   1      50.046 -31.839  -2.421  0.00  0.00    -0.113 N 
ATOM     11  HN  ZIN N   1      50.411 -32.436  -1.679  1.00  0.00     0.203 HD
HETATM   12  H   ZIN N   1      45.641 -32.524  -0.395  0.00  0.00     0.164 HD
HETATM   13  H   ZIN N   1      47.890 -32.504  -0.993  0.00  0.00     0.189 HD
HETATM   14  H   ZIN N   1      50.164 -30.029  -4.945  0.00  0.00     0.206 HD
ENDROOT
BRANCH   1  15
HETATM   15  C   ZIN N   1      44.010 -31.555  -1.425  0.00  0.00     0.087 C 
HETATM   16  C   ZIN N   1      43.294 -32.654  -2.212  0.00  0.00     0.032 C 
BRANCH  15  17
HETATM   17  C   ZIN N   1      43.308 -31.288  -0.079  0.00  0.00     0.083 C 
BRANCH  17  18
HETATM   18  C   ZIN N   1      42.324 -30.150  -0.205  0.00  0.00     0.026 A 
HETATM   19  N   ZIN N   1      41.350 -29.984   0.732  0.00  0.00    -0.367 N 
HETATM   20  C   ZIN N   1      40.469 -28.954   0.662  0.00  0.00     0.105 A 
ATOM     21  HN  ZIN N   1      41.281 -30.648   1.503  1.00  0.00     0.165 HD
HETATM   22  C   ZIN N   1      40.550 -28.053  -0.399  0.00  0.00     0.104 A 
HETATM   23  N   ZIN N   1      41.512 -28.216  -1.344  0.00  0.00    -0.372 N 
HETATM   24  C   ZIN N   1      42.403 -29.240  -1.270  0.00  0.00     0.112 A 
ATOM     25  HN  ZIN N   1      41.567 -27.559  -2.123  1.00  0.00     0.164 HD
ENDBRANCH  17  18
ENDBRANCH  15  17
ENDBRANCH   1  15
TORSDOF 3
ENDMDL
MODEL 8
REMARK VINA RESULT:      -7.9      4.828      7.353
REMARK  3 active torsions:
REMARK  status: ('A' for Active; 'I' for Inactive)
REMARK    1  A    between atoms: C_2  and  C_3 
REMARK    2  A    between atoms: C_2  and  N_12 
REMARK    3  A    between atoms: C_3  and  C_4 
REMARK       I    between atoms: N_12  and  C_13 
REMARK       I    between atoms: C_13  and  N_15 
REMARK       I    between atoms: N_15  and  C_16 
ROOT
HETATM    1  N   ZIN N   1      50.026 -31.838  -2.884  0.00  0.00    -0.338 N 
HETATM    2  C   ZIN N   1      51.084 -31.757  -2.032  0.00  0.00     0.334 C 
HETATM    3  O   ZIN N   1      51.130 -30.856  -1.204  0.00  0.00    -0.247 OA
HETATM    4  N   ZIN N   1      52.080 -32.686  -2.093  0.00  0.00    -0.139 N 
HETATM    5  C   ZIN N   1      53.202 -32.669  -1.217  0.00  0.00     0.714 A 
HETATM    6  N   ZIN N   1      53.410 -31.771  -0.237  0.00  0.00    -0.118 N 
ATOM      7  HN  ZIN N   1      52.811 -30.986   0.019  1.00  0.00     0.207 HD
HETATM    8  N   ZIN N   1      54.555 -32.123   0.321  0.00  0.00    -0.212 N 
HETATM    9  N   ZIN N   1      55.033 -33.198  -0.292  0.00  0.00     0.009 NA
HETATM   10  N   ZIN N   1      54.204 -33.559  -1.259  0.00  0.00    -0.113 N 
ATOM     11  HN  ZIN N   1      54.305 -34.347  -1.898  1.00  0.00     0.203 HD
HETATM   12  H   ZIN N   1      49.986 -32.617  -3.561  0.00  0.00     0.164 HD
HETATM   13  H   ZIN N   1      52.027 -33.438  -2.799  0.00  0.00     0.189 HD
HETATM   14  H   ZIN N   1      54.985 -31.660   1.075  0.00  0.00     0.206 HD
ENDROOT
BRANCH   1  15
HETATM   15  C   ZIN N   1      48.930 -30.877  -2.840  0.00  0.00     0.087 C 
HETATM   16  C   ZIN N   1      49.257 -29.698  -3.759  0.00  0.00     0.032 C 
BRANCH  15  17
HETATM   17  C   ZIN N   1      47.603 -31.546  -3.245  0.00  0.00     0.083 C 
BRANCH  17  18
HETATM   18  C   ZIN N   1      46.535 -31.288  -2.208  0.00  0.00     0.026 A 
HETATM   19  N   ZIN N   1      45.358 -31.971  -2.258  0.00  0.00    -0.367 N 
HETATM   20  C   ZIN N   1      44.392 -31.783  -1.325  0.00  0.00     0.105 A 
ATOM     21  HN  ZIN N   1      45.199 -32.638  -3.013  1.00  0.00     0.165 HD
HETATM   22  C   ZIN N   1      44.598 -30.861  -0.299  0.00  0.00     0.104 A 
HETATM   23  N   ZIN N   1      45.766 -30.167  -0.247  0.00  0.00    -0.372 N 
HETATM   24  C   ZIN N   1      46.740 -30.362  -1.175  0.00  0.00     0.112 A 
ATOM     25  HN  ZIN N   1      45.913 -29.489   0.500  1.00  0.00     0.164 HD
ENDBRANCH  17  18
ENDBRANCH  15  17
ENDBRANCH   1  15
TORSDOF 3
ENDMDL
MODEL 9
REMARK VINA RESULT:      -7.7      3.085      6.426
REMARK  3 active torsions:
REMARK  status: ('A' for Active; 'I' for Inactive)
REMARK    1  A    between atoms: C_2  and  C_3 
REMARK    2  A    between atoms: C_2  and  N_12 
REMARK    3  A    between atoms: C_3  and  C_4 
REMARK       I    between atoms: N_12  and  C_13 
REMARK       I    between atoms: C_13  and  N_15 
REMARK       I    between atoms: N_15  and  C_16 
ROOT
HETATM    1  N   ZIN N   1      56.041 -33.226  -0.113  0.00  0.00    -0.338 N 
HETATM    2  C   ZIN N   1      54.780 -33.113  -0.613  0.00  0.00     0.334 C 
HETATM    3  O   ZIN N   1      53.888 -33.831  -0.179  0.00  0.00    -0.247 OA
HETATM    4  N   ZIN N   1      54.512 -32.193  -1.583  0.00  0.00    -0.139 N 
HETATM    5  C   ZIN N   1      53.212 -32.012  -2.132  0.00  0.00     0.714 A 
HETATM    6  N   ZIN N   1      52.111 -32.692  -1.765  0.00  0.00    -0.118 N 
ATOM      7  HN  ZIN N   1      52.043 -33.424  -1.058  1.00  0.00     0.207 HD
HETATM    8  N   ZIN N   1      51.136 -32.212  -2.518  0.00  0.00    -0.212 N 
HETATM    9  N   ZIN N   1      51.620 -31.270  -3.317  0.00  0.00     0.009 NA
HETATM   10  N   ZIN N   1      52.917 -31.125  -3.094  0.00  0.00    -0.113 N 
ATOM     11  HN  ZIN N   1      53.555 -30.477  -3.556  1.00  0.00     0.203 HD
HETATM   12  H   ZIN N   1      56.779 -32.597  -0.469  0.00  0.00     0.164 HD
HETATM   13  H   ZIN N   1      55.277 -31.597  -1.939  0.00  0.00     0.189 HD
HETATM   14  H   ZIN N   1      50.198 -32.507  -2.489  0.00  0.00     0.206 HD
ENDROOT
BRANCH   1  15
HETATM   15  C   ZIN N   1      56.367 -34.182   0.938  0.00  0.00     0.087 C 
HETATM   16  C   ZIN N   1      57.424 -35.160   0.419  0.00  0.00     0.032 C 
BRANCH  15  17
HETATM   17  C   ZIN N   1      56.858 -33.453   2.204  0.00  0.00     0.083 C 
BRANCH  17  18
HETATM   18  C   ZIN N   1      55.690 -32.986   3.039  0.00  0.00     0.026 A 
HETATM   19  N   ZIN N   1      54.476 -33.591   2.913  0.00  0.00    -0.367 N 
HETATM   20  C   ZIN N   1      53.416 -33.214   3.669  0.00  0.00     0.105 A 
ATOM     21  HN  ZIN N   1      54.363 -34.345   2.235  1.00  0.00     0.165 HD
HETATM   22  C   ZIN N   1      53.562 -32.174   4.587  0.00  0.00     0.104 A 
HETATM   23  N   ZIN N   1      54.766 -31.557   4.713  0.00  0.00    -0.372 N 
HETATM   24  C   ZIN N   1      55.834 -31.941   3.963  0.00  0.00     0.112 A 
ATOM     25  HN  ZIN N   1      54.871 -30.793   5.380  1.00  0.00     0.164 HD
ENDBRANCH  17  18
ENDBRANCH  15  17
ENDBRANCH   1  15
TORSDOF 3
ENDMDL
