MODEL 1
REMARK VINA RESULT:     -10.2      0.000      0.000
REMARK  4 active torsions:
REMARK  status: ('A' for Active; 'I' for Inactive)
REMARK    1  A    between atoms: N_1  and  C_2 
REMARK    2  A    between atoms: C_8  and  C_9 
REMARK    3  A    between atoms: C_14  and  C_15 
REMARK    4  A    between atoms: C_21  and  N_22 
ROOT
HETATM    1  C   ZIN N   1     -49.097  16.204 -70.973  0.00  0.00     0.154 A 
HETATM    2  N   ZIN N   1     -48.533  17.286 -70.410  0.00  0.00    -0.282 N 
ATOM      3  HN  ZIN N   1     -47.715  17.789 -70.753  1.00  0.00     0.188 HD
HETATM    4  N   ZIN N   1     -49.233  17.573 -69.332  0.00  0.00    -0.282 N 
ATOM      5  HN  ZIN N   1     -49.059  18.342 -68.684  1.00  0.00     0.188 HD
HETATM    6  C   ZIN N   1     -50.220  16.667 -69.246  0.00  0.00     0.154 A 
HETATM    7  N   ZIN N   1     -50.168  15.783 -70.266  0.00  0.00    -0.322 N 
HETATM    8  H   ZIN N   1     -50.763  15.020 -70.448  0.00  0.00     0.169 HD
ENDROOT
BRANCH   1   9
HETATM    9  C   ZIN N   1     -48.599  15.574 -72.205  0.00  0.00     0.147 A 
HETATM   10  C   ZIN N   1     -48.245  16.174 -73.392  0.00  0.00     0.154 A 
HETATM   11  N   ZIN N   1     -47.848  15.213 -74.237  0.00  0.00    -0.224 N 
HETATM   12  O   ZIN N   1     -47.960  14.090 -73.580  0.00  0.00    -0.155 OA
ATOM     13  HN  ZIN N   1     -47.523  15.332 -75.197  1.00  0.00     0.198 HD
HETATM   14  N   ZIN N   1     -48.405  14.252 -72.362  0.00  0.00    -0.234 N 
ATOM     15  HN  ZIN N   1     -48.572  13.523 -71.669  1.00  0.00     0.197 HD
BRANCH  10  16
HETATM   16  N   ZIN N   1     -48.275  17.553 -73.720  0.00  0.00    -0.382 N 
HETATM   17  H   ZIN N   1     -49.094  18.137 -73.513  0.00  0.00     0.157 HD
HETATM   18  H   ZIN N   1     -47.462  17.989 -74.177  0.00  0.00     0.157 HD
ENDBRANCH  10  16
ENDBRANCH   1   9
BRANCH   6  19
HETATM   19  C   ZIN N   1     -51.221  16.654 -68.169  0.00  0.00     0.147 A 
HETATM   20  C   ZIN N   1     -51.766  15.570 -67.517  0.00  0.00     0.154 A 
HETATM   21  N   ZIN N   1     -52.637  16.031 -66.608  0.00  0.00    -0.224 N 
HETATM   22  O   ZIN N   1     -52.611  17.332 -66.715  0.00  0.00    -0.155 OA
ATOM     23  HN  ZIN N   1     -53.204  15.479 -65.965  1.00  0.00     0.198 HD
HETATM   24  N   ZIN N   1     -51.782  17.752 -67.633  0.00  0.00    -0.234 N 
ATOM     25  HN  ZIN N   1     -51.595  18.722 -67.892  1.00  0.00     0.197 HD
BRANCH  20  26
HETATM   26  N   ZIN N   1     -51.494  14.195 -67.726  0.00  0.00    -0.382 N 
HETATM   27  H   ZIN N   1     -52.244  13.499 -67.607  0.00  0.00     0.157 HD
HETATM   28  H   ZIN N   1     -50.558  13.868 -67.994  0.00  0.00     0.157 HD
ENDBRANCH  20  26
ENDBRANCH   6  19
TORSDOF 4
ENDMDL
MODEL 2
REMARK VINA RESULT:     -10.2      0.010      6.348
REMARK  4 active torsions:
REMARK  status: ('A' for Active; 'I' for Inactive)
REMARK    1  A    between atoms: N_1  and  C_2 
REMARK    2  A    between atoms: C_8  and  C_9 
REMARK    3  A    between atoms: C_14  and  C_15 
REMARK    4  A    between atoms: C_21  and  N_22 
ROOT
HETATM    1  C   ZIN N   1     -50.219  16.665 -69.255  0.00  0.00     0.154 A 
HETATM    2  N   ZIN N   1     -49.233  17.574 -69.341  0.00  0.00    -0.282 N 
ATOM      3  HN  ZIN N   1     -49.060  18.343 -68.695  1.00  0.00     0.188 HD
HETATM    4  N   ZIN N   1     -48.534  17.286 -70.420  0.00  0.00    -0.282 N 
ATOM      5  HN  ZIN N   1     -47.716  17.790 -70.764  1.00  0.00     0.188 HD
HETATM    6  C   ZIN N   1     -49.097  16.204 -70.982  0.00  0.00     0.154 A 
HETATM    7  N   ZIN N   1     -50.166  15.781 -70.274  0.00  0.00    -0.322 N 
HETATM    8  H   ZIN N   1     -50.761  15.018 -70.457  0.00  0.00     0.169 HD
ENDROOT
BRANCH   1   9
HETATM    9  C   ZIN N   1     -51.220  16.651 -68.177  0.00  0.00     0.147 A 
HETATM   10  C   ZIN N   1     -51.763  15.566 -67.526  0.00  0.00     0.154 A 
HETATM   11  N   ZIN N   1     -52.634  16.025 -66.617  0.00  0.00    -0.224 N 
HETATM   12  O   ZIN N   1     -52.610  17.326 -66.723  0.00  0.00    -0.155 OA
ATOM     13  HN  ZIN N   1     -53.201  15.472 -65.973  1.00  0.00     0.198 HD
HETATM   14  N   ZIN N   1     -51.781  17.749 -67.641  0.00  0.00    -0.234 N 
ATOM     15  HN  ZIN N   1     -51.596  18.719 -67.899  1.00  0.00     0.197 HD
BRANCH  10  16
HETATM   16  N   ZIN N   1     -51.489  14.191 -67.736  0.00  0.00    -0.382 N 
HETATM   17  H   ZIN N   1     -50.715  13.883 -68.337  0.00  0.00     0.157 HD
HETATM   18  H   ZIN N   1     -52.074  13.477 -67.281  0.00  0.00     0.157 HD
ENDBRANCH  10  16
ENDBRANCH   1   9
BRANCH   6  19
HETATM   19  C   ZIN N   1     -48.597  15.573 -72.214  0.00  0.00     0.147 A 
HETATM   20  C   ZIN N   1     -48.239  16.174 -73.400  0.00  0.00     0.154 A 
HETATM   21  N   ZIN N   1     -47.842  15.211 -74.245  0.00  0.00    -0.224 N 
HETATM   22  O   ZIN N   1     -47.959  14.088 -73.589  0.00  0.00    -0.155 OA
ATOM     23  HN  ZIN N   1     -47.516  15.332 -75.204  1.00  0.00     0.198 HD
HETATM   24  N   ZIN N   1     -48.407  14.252 -72.372  0.00  0.00    -0.234 N 
ATOM     25  HN  ZIN N   1     -48.577  13.521 -71.679  1.00  0.00     0.197 HD
BRANCH  20  26
HETATM   26  N   ZIN N   1     -48.265  17.552 -73.727  0.00  0.00    -0.382 N 
HETATM   27  H   ZIN N   1     -48.630  18.235 -73.048  0.00  0.00     0.157 HD
HETATM   28  H   ZIN N   1     -47.925  17.895 -74.634  0.00  0.00     0.157 HD
ENDBRANCH  20  26
ENDBRANCH   6  19
TORSDOF 4
ENDMDL
MODEL 3
REMARK VINA RESULT:      -9.9      1.488      2.352
REMARK  4 active torsions:
REMARK  status: ('A' for Active; 'I' for Inactive)
REMARK    1  A    between atoms: N_1  and  C_2 
REMARK    2  A    between atoms: C_8  and  C_9 
REMARK    3  A    between atoms: C_14  and  C_15 
REMARK    4  A    between atoms: C_21  and  N_22 
ROOT
HETATM    1  C   ZIN N   1     -49.190  15.658 -71.146  0.00  0.00     0.154 A 
HETATM    2  N   ZIN N   1     -49.160  14.331 -70.937  0.00  0.00    -0.282 N 
ATOM      3  HN  ZIN N   1     -48.673  13.639 -71.506  1.00  0.00     0.188 HD
HETATM    4  N   ZIN N   1     -49.877  14.092 -69.858  0.00  0.00    -0.282 N 
ATOM      5  HN  ZIN N   1     -50.050  13.179 -69.436  1.00  0.00     0.188 HD
HETATM    6  C   ZIN N   1     -50.339  15.273 -69.417  0.00  0.00     0.154 A 
HETATM    7  N   ZIN N   1     -49.926  16.288 -70.205  0.00  0.00    -0.322 N 
HETATM    8  H   ZIN N   1     -50.115  17.251 -70.117  0.00  0.00     0.169 HD
ENDROOT
BRANCH   1   9
HETATM    9  C   ZIN N   1     -48.502  16.321 -72.264  0.00  0.00     0.147 A 
HETATM   10  C   ZIN N   1     -47.266  16.930 -72.270  0.00  0.00     0.154 A 
HETATM   11  N   ZIN N   1     -47.044  17.398 -73.505  0.00  0.00    -0.224 N 
HETATM   12  O   ZIN N   1     -48.101  17.082 -74.204  0.00  0.00    -0.155 OA
ATOM     13  HN  ZIN N   1     -46.218  17.900 -73.835  1.00  0.00     0.198 HD
HETATM   14  N   ZIN N   1     -49.001  16.438 -73.507  0.00  0.00    -0.234 N 
ATOM     15  HN  ZIN N   1     -49.901  16.093 -73.840  1.00  0.00     0.197 HD
BRANCH  10  16
HETATM   16  N   ZIN N   1     -46.352  17.066 -71.196  0.00  0.00    -0.382 N 
HETATM   17  H   ZIN N   1     -45.372  16.767 -71.282  0.00  0.00     0.157 HD
HETATM   18  H   ZIN N   1     -46.665  17.471 -70.303  0.00  0.00     0.157 HD
ENDBRANCH  10  16
ENDBRANCH   1   9
BRANCH   6  19
HETATM   19  C   ZIN N   1     -51.186  15.422 -68.224  0.00  0.00     0.147 A 
HETATM   20  C   ZIN N   1     -51.662  16.579 -67.650  0.00  0.00     0.154 A 
HETATM   21  N   ZIN N   1     -52.394  16.237 -66.579  0.00  0.00    -0.224 N 
HETATM   22  O   ZIN N   1     -52.352  14.933 -66.519  0.00  0.00    -0.155 OA
ATOM     23  HN  ZIN N   1     -52.881  16.866 -65.941  1.00  0.00     0.198 HD
HETATM   24  N   ZIN N   1     -51.644  14.400 -67.480  0.00  0.00    -0.234 N 
ATOM     25  HN  ZIN N   1     -51.473  13.406 -67.634  1.00  0.00     0.197 HD
BRANCH  20  26
HETATM   26  N   ZIN N   1     -51.453  17.917 -68.069  0.00  0.00    -0.382 N 
HETATM   27  H   ZIN N   1     -51.427  18.142 -69.073  0.00  0.00     0.157 HD
HETATM   28  H   ZIN N   1     -51.322  18.677 -67.391  0.00  0.00     0.157 HD
ENDBRANCH  20  26
ENDBRANCH   6  19
TORSDOF 4
ENDMDL
MODEL 4
REMARK VINA RESULT:      -9.8      1.129      6.488
REMARK  4 active torsions:
REMARK  status: ('A' for Active; 'I' for Inactive)
REMARK    1  A    between atoms: N_1  and  C_2 
REMARK    2  A    between atoms: C_8  and  C_9 
REMARK    3  A    between atoms: C_14  and  C_15 
REMARK    4  A    between atoms: C_21  and  N_22 
ROOT
HETATM    1  C   ZIN N   1     -50.676  16.175 -68.889  0.00  0.00     0.154 A 
HETATM    2  N   ZIN N   1     -50.667  14.838 -68.764  0.00  0.00    -0.282 N 
ATOM      3  HN  ZIN N   1     -51.087  14.298 -68.007  1.00  0.00     0.188 HD
HETATM    4  N   ZIN N   1     -50.014  14.355 -69.801  0.00  0.00    -0.282 N 
ATOM      5  HN  ZIN N   1     -49.834  13.370 -69.998  1.00  0.00     0.188 HD
HETATM    6  C   ZIN N   1     -49.631  15.400 -70.552  0.00  0.00     0.154 A 
HETATM    7  N   ZIN N   1     -50.031  16.569 -70.008  0.00  0.00    -0.322 N 
HETATM    8  H   ZIN N   1     -49.887  17.484 -70.344  0.00  0.00     0.169 HD
ENDROOT
BRANCH   1   9
HETATM    9  C   ZIN N   1     -51.315  17.079 -67.921  0.00  0.00     0.147 A 
HETATM   10  C   ZIN N   1     -52.077  16.756 -66.820  0.00  0.00     0.154 A 
HETATM   11  N   ZIN N   1     -52.452  17.899 -66.229  0.00  0.00    -0.224 N 
HETATM   12  O   ZIN N   1     -51.935  18.859 -66.947  0.00  0.00    -0.155 OA
ATOM     13  HN  ZIN N   1     -53.023  17.999 -65.389  1.00  0.00     0.198 HD
HETATM   14  N   ZIN N   1     -51.247  18.421 -67.968  0.00  0.00    -0.234 N 
ATOM     15  HN  ZIN N   1     -50.758  18.985 -68.664  1.00  0.00     0.197 HD
BRANCH  10  16
HETATM   16  N   ZIN N   1     -52.433  15.468 -66.349  0.00  0.00    -0.382 N 
HETATM   17  H   ZIN N   1     -52.319  15.206 -65.361  0.00  0.00     0.157 HD
HETATM   18  H   ZIN N   1     -52.814  14.770 -67.002  0.00  0.00     0.157 HD
ENDBRANCH  10  16
ENDBRANCH   1   9
BRANCH   6  19
HETATM   19  C   ZIN N   1     -48.871  15.268 -71.804  0.00  0.00     0.147 A 
HETATM   20  C   ZIN N   1     -48.058  16.195 -72.415  0.00  0.00     0.154 A 
HETATM   21  N   ZIN N   1     -47.571  15.642 -73.536  0.00  0.00    -0.224 N 
HETATM   22  O   ZIN N   1     -48.075  14.438 -73.588  0.00  0.00    -0.155 OA
ATOM     23  HN  ZIN N   1     -46.939  16.072 -74.210  1.00  0.00     0.198 HD
HETATM   24  N   ZIN N   1     -48.857  14.167 -72.576  0.00  0.00    -0.234 N 
ATOM     25  HN  ZIN N   1     -49.358  13.294 -72.406  1.00  0.00     0.197 HD
BRANCH  20  26
HETATM   26  N   ZIN N   1     -47.752  17.511 -71.986  0.00  0.00    -0.382 N 
HETATM   27  H   ZIN N   1     -48.057  17.832 -71.057  0.00  0.00     0.157 HD
HETATM   28  H   ZIN N   1     -47.228  18.162 -72.585  0.00  0.00     0.157 HD
ENDBRANCH  20  26
ENDBRANCH   6  19
TORSDOF 4
ENDMDL
MODEL 5
REMARK VINA RESULT:      -9.6      1.390      6.244
REMARK  4 active torsions:
REMARK  status: ('A' for Active; 'I' for Inactive)
REMARK    1  A    between atoms: N_1  and  C_2 
REMARK    2  A    between atoms: C_8  and  C_9 
REMARK    3  A    between atoms: C_14  and  C_15 
REMARK    4  A    between atoms: C_21  and  N_22 
ROOT
HETATM    1  C   ZIN N   1     -50.831  15.079 -69.420  0.00  0.00     0.154 A 
HETATM    2  N   ZIN N   1     -51.394  14.323 -70.377  0.00  0.00    -0.282 N 
ATOM      3  HN  ZIN N   1     -52.211  13.721 -70.272  1.00  0.00     0.188 HD
HETATM    4  N   ZIN N   1     -50.692  14.503 -71.477  0.00  0.00    -0.282 N 
ATOM      5  HN  ZIN N   1     -50.865  14.068 -72.384  1.00  0.00     0.188 HD
HETATM    6  C   ZIN N   1     -49.708  15.368 -71.184  0.00  0.00     0.154 A 
HETATM    7  N   ZIN N   1     -49.762  15.756 -69.892  0.00  0.00    -0.322 N 
HETATM    8  H   ZIN N   1     -49.168  16.377 -69.412  0.00  0.00     0.169 HD
ENDROOT
BRANCH   1   9
HETATM    9  C   ZIN N   1     -51.332  15.149 -68.039  0.00  0.00     0.147 A 
HETATM   10  C   ZIN N   1     -51.745  16.256 -67.332  0.00  0.00     0.154 A 
HETATM   11  N   ZIN N   1     -52.118  15.848 -66.110  0.00  0.00    -0.224 N 
HETATM   12  O   ZIN N   1     -51.935  14.556 -66.093  0.00  0.00    -0.155 OA
ATOM     13  HN  ZIN N   1     -52.473  16.428 -65.350  1.00  0.00     0.198 HD
HETATM   14  N   ZIN N   1     -51.467  14.090 -67.221  0.00  0.00    -0.234 N 
ATOM     15  HN  ZIN N   1     -51.247  13.118 -67.437  1.00  0.00     0.197 HD
BRANCH  10  16
HETATM   16  N   ZIN N   1     -51.790  17.604 -67.764  0.00  0.00    -0.382 N 
HETATM   17  H   ZIN N   1     -51.165  18.317 -67.366  0.00  0.00     0.157 HD
HETATM   18  H   ZIN N   1     -52.459  17.888 -68.492  0.00  0.00     0.157 HD
ENDBRANCH  10  16
ENDBRANCH   1   9
BRANCH   6  19
HETATM   19  C   ZIN N   1     -48.707  15.824 -72.160  0.00  0.00     0.147 A 
HETATM   20  C   ZIN N   1     -47.778  16.832 -72.029  0.00  0.00     0.154 A 
HETATM   21  N   ZIN N   1     -47.074  16.895 -73.169  0.00  0.00    -0.224 N 
HETATM   22  O   ZIN N   1     -47.565  15.965 -73.944  0.00  0.00    -0.155 OA
ATOM     23  HN  ZIN N   1     -46.313  17.537 -73.387  1.00  0.00     0.198 HD
HETATM   24  N   ZIN N   1     -48.541  15.299 -73.387  0.00  0.00    -0.234 N 
ATOM     25  HN  ZIN N   1     -49.073  14.531 -73.800  1.00  0.00     0.197 HD
BRANCH  20  26
HETATM   26  N   ZIN N   1     -47.558  17.681 -70.916  0.00  0.00    -0.382 N 
HETATM   27  H   ZIN N   1     -47.804  17.361 -69.969  0.00  0.00     0.157 HD
HETATM   28  H   ZIN N   1     -47.155  18.619 -71.029  0.00  0.00     0.157 HD
ENDBRANCH  20  26
ENDBRANCH   6  19
TORSDOF 4
ENDMDL
MODEL 6
REMARK VINA RESULT:      -9.2      1.376      6.116
REMARK  4 active torsions:
REMARK  status: ('A' for Active; 'I' for Inactive)
REMARK    1  A    between atoms: N_1  and  C_2 
REMARK    2  A    between atoms: C_8  and  C_9 
REMARK    3  A    between atoms: C_14  and  C_15 
REMARK    4  A    between atoms: C_21  and  N_22 
ROOT
HETATM    1  C   ZIN N   1     -50.116  15.834 -69.894  0.00  0.00     0.154 A 
HETATM    2  N   ZIN N   1     -49.114  16.722 -69.788  0.00  0.00    -0.282 N 
ATOM      3  HN  ZIN N   1     -48.847  17.237 -68.949  1.00  0.00     0.188 HD
HETATM    4  N   ZIN N   1     -48.540  16.803 -70.971  0.00  0.00    -0.282 N 
ATOM      5  HN  ZIN N   1     -47.745  17.393 -71.219  1.00  0.00     0.188 HD
HETATM    6  C   ZIN N   1     -49.196  15.964 -71.789  0.00  0.00     0.154 A 
HETATM    7  N   ZIN N   1     -50.200  15.333 -71.144  0.00  0.00    -0.322 N 
HETATM    8  H   ZIN N   1     -50.837  14.670 -71.499  0.00  0.00     0.169 HD
ENDROOT
BRANCH   1   9
HETATM    9  C   ZIN N   1     -51.000  15.467 -68.776  0.00  0.00     0.147 A 
HETATM   10  C   ZIN N   1     -51.660  16.297 -67.897  0.00  0.00     0.154 A 
HETATM   11  N   ZIN N   1     -52.349  15.527 -67.044  0.00  0.00    -0.224 N 
HETATM   12  O   ZIN N   1     -52.110  14.294 -67.400  0.00  0.00    -0.155 OA
ATOM     13  HN  ZIN N   1     -52.941  15.840 -66.273  1.00  0.00     0.198 HD
HETATM   14  N   ZIN N   1     -51.309  14.205 -68.430  0.00  0.00    -0.234 N 
ATOM     15  HN  ZIN N   1     -50.984  13.350 -68.880  1.00  0.00     0.197 HD
BRANCH  10  16
HETATM   16  N   ZIN N   1     -51.650  17.713 -67.854  0.00  0.00    -0.382 N 
HETATM   17  H   ZIN N   1     -52.337  18.239 -67.300  0.00  0.00     0.157 HD
HETATM   18  H   ZIN N   1     -50.943  18.238 -68.388  0.00  0.00     0.157 HD
ENDBRANCH  10  16
ENDBRANCH   1   9
BRANCH   6  19
HETATM   19  C   ZIN N   1     -48.849  15.771 -73.205  0.00  0.00     0.147 A 
HETATM   20  C   ZIN N   1     -48.342  14.648 -73.818  0.00  0.00     0.154 A 
HETATM   21  N   ZIN N   1     -48.180  14.926 -75.121  0.00  0.00    -0.224 N 
HETATM   22  O   ZIN N   1     -48.573  16.162 -75.273  0.00  0.00    -0.155 OA
ATOM     23  HN  ZIN N   1     -47.823  14.302 -75.843  1.00  0.00     0.198 HD
HETATM   24  N   ZIN N   1     -48.982  16.710 -74.159  0.00  0.00    -0.234 N 
ATOM     25  HN  ZIN N   1     -49.332  17.661 -74.037  1.00  0.00     0.197 HD
BRANCH  20  26
HETATM   26  N   ZIN N   1     -48.029  13.396 -73.233  0.00  0.00    -0.382 N 
HETATM   27  H   ZIN N   1     -48.688  12.956 -72.576  0.00  0.00     0.157 HD
HETATM   28  H   ZIN N   1     -47.150  12.908 -73.448  0.00  0.00     0.157 HD
ENDBRANCH  20  26
ENDBRANCH   6  19
TORSDOF 4
ENDMDL
MODEL 7
REMARK VINA RESULT:      -8.9      4.439      6.798
REMARK  4 active torsions:
REMARK  status: ('A' for Active; 'I' for Inactive)
REMARK    1  A    between atoms: N_1  and  C_2 
REMARK    2  A    between atoms: C_8  and  C_9 
REMARK    3  A    between atoms: C_14  and  C_15 
REMARK    4  A    between atoms: C_21  and  N_22 
ROOT
HETATM    1  C   ZIN N   1     -50.400  16.359 -76.902  0.00  0.00     0.154 A 
HETATM    2  N   ZIN N   1     -51.206  17.213 -76.250  0.00  0.00    -0.282 N 
ATOM      3  HN  ZIN N   1     -52.048  17.653 -76.620  1.00  0.00     0.188 HD
HETATM    4  N   ZIN N   1     -50.704  17.376 -75.043  0.00  0.00    -0.282 N 
ATOM      5  HN  ZIN N   1     -51.085  17.966 -74.303  1.00  0.00     0.188 HD
HETATM    6  C   ZIN N   1     -49.596  16.620 -74.967  0.00  0.00     0.154 A 
HETATM    7  N   ZIN N   1     -49.370  15.962 -76.124  0.00  0.00    -0.322 N 
HETATM    8  H   ZIN N   1     -48.635  15.344 -76.346  0.00  0.00     0.169 HD
ENDROOT
BRANCH   1   9
HETATM    9  C   ZIN N   1     -50.627  15.923 -78.288  0.00  0.00     0.147 A 
HETATM   10  C   ZIN N   1     -50.465  14.667 -78.829  0.00  0.00     0.154 A 
HETATM   11  N   ZIN N   1     -50.788  14.734 -80.128  0.00  0.00    -0.224 N 
HETATM   12  O   ZIN N   1     -51.127  15.975 -80.350  0.00  0.00    -0.155 OA
ATOM     13  HN  ZIN N   1     -50.773  13.971 -80.807  1.00  0.00     0.198 HD
HETATM   14  N   ZIN N   1     -51.047  16.725 -79.282  0.00  0.00    -0.234 N 
ATOM     15  HN  ZIN N   1     -51.261  17.721 -79.216  1.00  0.00     0.197 HD
BRANCH  10  16
HETATM   16  N   ZIN N   1     -50.039  13.482 -78.180  0.00  0.00    -0.382 N 
HETATM   17  H   ZIN N   1     -49.955  13.430 -77.157  0.00  0.00     0.157 HD
HETATM   18  H   ZIN N   1     -49.804  12.648 -78.736  0.00  0.00     0.157 HD
ENDBRANCH  10  16
ENDBRANCH   1   9
BRANCH   6  19
HETATM   19  C   ZIN N   1     -48.749  16.535 -73.768  0.00  0.00     0.147 A 
HETATM   20  C   ZIN N   1     -47.604  17.241 -73.475  0.00  0.00     0.154 A 
HETATM   21  N   ZIN N   1     -47.167  16.837 -72.273  0.00  0.00    -0.224 N 
HETATM   22  O   ZIN N   1     -48.017  15.930 -71.870  0.00  0.00    -0.155 OA
ATOM     23  HN  ZIN N   1     -46.342  17.169 -71.775  1.00  0.00     0.198 HD
HETATM   24  N   ZIN N   1     -48.979  15.715 -72.727  0.00  0.00    -0.234 N 
ATOM     25  HN  ZIN N   1     -49.752  15.055 -72.627  1.00  0.00     0.197 HD
BRANCH  20  26
HETATM   26  N   ZIN N   1     -46.957  18.227 -74.261  0.00  0.00    -0.382 N 
HETATM   27  H   ZIN N   1     -45.970  18.458 -74.084  0.00  0.00     0.157 HD
HETATM   28  H   ZIN N   1     -47.452  18.725 -75.010  0.00  0.00     0.157 HD
ENDBRANCH  20  26
ENDBRANCH   6  19
TORSDOF 4
ENDMDL
MODEL 8
REMARK VINA RESULT:      -8.8      4.367      7.962
REMARK  4 active torsions:
REMARK  status: ('A' for Active; 'I' for Inactive)
REMARK    1  A    between atoms: N_1  and  C_2 
REMARK    2  A    between atoms: C_8  and  C_9 
REMARK    3  A    between atoms: C_14  and  C_15 
REMARK    4  A    between atoms: C_21  and  N_22 
ROOT
HETATM    1  C   ZIN N   1     -49.684  16.510 -74.958  0.00  0.00     0.154 A 
HETATM    2  N   ZIN N   1     -50.777  17.288 -75.042  0.00  0.00    -0.282 N 
ATOM      3  HN  ZIN N   1     -51.167  17.867 -74.299  1.00  0.00     0.188 HD
HETATM    4  N   ZIN N   1     -51.251  17.161 -76.265  0.00  0.00    -0.282 N 
ATOM      5  HN  ZIN N   1     -52.076  17.625 -76.646  1.00  0.00     0.188 HD
HETATM    6  C   ZIN N   1     -50.443  16.309 -76.918  0.00  0.00     0.154 A 
HETATM    7  N   ZIN N   1     -49.441  15.875 -76.125  0.00  0.00    -0.322 N 
HETATM    8  H   ZIN N   1     -48.712  15.250 -76.343  0.00  0.00     0.169 HD
ENDROOT
BRANCH   1   9
HETATM    9  C   ZIN N   1     -48.869  16.382 -73.741  0.00  0.00     0.147 A 
HETATM   10  C   ZIN N   1     -47.679  17.004 -73.436  0.00  0.00     0.154 A 
HETATM   11  N   ZIN N   1     -47.296  16.588 -72.221  0.00  0.00    -0.224 N 
HETATM   12  O   ZIN N   1     -48.219  15.756 -71.820  0.00  0.00    -0.155 OA
ATOM     13  HN  ZIN N   1     -46.456  16.865 -71.712  1.00  0.00     0.198 HD
HETATM   14  N   ZIN N   1     -49.180  15.598 -72.693  0.00  0.00    -0.234 N 
ATOM     15  HN  ZIN N   1     -50.001  15.001 -72.598  1.00  0.00     0.197 HD
BRANCH  10  16
HETATM   16  N   ZIN N   1     -46.945  17.925 -74.225  0.00  0.00    -0.382 N 
HETATM   17  H   ZIN N   1     -47.129  18.039 -75.230  0.00  0.00     0.157 HD
HETATM   18  H   ZIN N   1     -46.208  18.498 -73.792  0.00  0.00     0.157 HD
ENDBRANCH  10  16
ENDBRANCH   1   9
BRANCH   6  19
HETATM   19  C   ZIN N   1     -50.643  15.911 -78.319  0.00  0.00     0.147 A 
HETATM   20  C   ZIN N   1     -50.476  14.669 -78.890  0.00  0.00     0.154 A 
HETATM   21  N   ZIN N   1     -50.772  14.772 -80.194  0.00  0.00    -0.224 N 
HETATM   22  O   ZIN N   1     -51.100  16.020 -80.389  0.00  0.00    -0.155 OA
ATOM     23  HN  ZIN N   1     -50.745  14.028 -80.891  1.00  0.00     0.198 HD
HETATM   24  N   ZIN N   1     -51.040  16.741 -79.300  0.00  0.00    -0.234 N 
ATOM     25  HN  ZIN N   1     -51.251  17.735 -79.212  1.00  0.00     0.197 HD
BRANCH  20  26
HETATM   26  N   ZIN N   1     -50.067  13.465 -78.265  0.00  0.00    -0.382 N 
HETATM   27  H   ZIN N   1     -49.132  13.399 -77.839  0.00  0.00     0.157 HD
HETATM   28  H   ZIN N   1     -50.684  12.645 -78.225  0.00  0.00     0.157 HD
ENDBRANCH  20  26
ENDBRANCH   6  19
TORSDOF 4
ENDMDL
MODEL 9
REMARK VINA RESULT:      -8.5      2.219      2.479
REMARK  4 active torsions:
REMARK  status: ('A' for Active; 'I' for Inactive)
REMARK    1  A    between atoms: N_1  and  C_2 
REMARK    2  A    between atoms: C_8  and  C_9 
REMARK    3  A    between atoms: C_14  and  C_15 
REMARK    4  A    between atoms: C_21  and  N_22 
ROOT
HETATM    1  C   ZIN N   1     -50.424  14.980 -72.536  0.00  0.00     0.154 A 
HETATM    2  N   ZIN N   1     -49.382  14.407 -71.912  0.00  0.00    -0.282 N 
ATOM      3  HN  ZIN N   1     -48.663  13.826 -72.342  1.00  0.00     0.188 HD
HETATM    4  N   ZIN N   1     -49.464  14.735 -70.639  0.00  0.00    -0.282 N 
ATOM      5  HN  ZIN N   1     -48.820  14.456 -69.898  1.00  0.00     0.188 HD
HETATM    6  C   ZIN N   1     -50.554  15.506 -70.496  0.00  0.00     0.154 A 
HETATM    7  N   ZIN N   1     -51.189  15.684 -71.675  0.00  0.00    -0.322 N 
HETATM    8  H   ZIN N   1     -52.007  16.200 -71.860  0.00  0.00     0.169 HD
ENDROOT
BRANCH   1   9
HETATM    9  C   ZIN N   1     -50.682  14.846 -73.978  0.00  0.00     0.147 A 
HETATM   10  C   ZIN N   1     -50.779  15.840 -74.927  0.00  0.00     0.154 A 
HETATM   11  N   ZIN N   1     -51.023  15.257 -76.109  0.00  0.00    -0.224 N 
HETATM   12  O   ZIN N   1     -51.069  13.974 -75.873  0.00  0.00    -0.155 OA
ATOM     13  HN  ZIN N   1     -51.147  15.720 -77.010  1.00  0.00     0.198 HD
HETATM   14  N   ZIN N   1     -50.872  13.677 -74.615  0.00  0.00    -0.234 N 
ATOM     15  HN  ZIN N   1     -50.864  12.746 -74.200  1.00  0.00     0.197 HD
BRANCH  10  16
HETATM   16  N   ZIN N   1     -50.652  17.239 -74.747  0.00  0.00    -0.382 N 
HETATM   17  H   ZIN N   1     -50.690  17.666 -73.812  0.00  0.00     0.157 HD
HETATM   18  H   ZIN N   1     -50.518  17.852 -75.562  0.00  0.00     0.157 HD
ENDBRANCH  10  16
ENDBRANCH   1   9
BRANCH   6  19
HETATM   19  C   ZIN N   1     -50.986  16.076 -69.211  0.00  0.00     0.147 A 
HETATM   20  C   ZIN N   1     -51.370  15.414 -68.066  0.00  0.00     0.154 A 
HETATM   21  N   ZIN N   1     -51.680  16.335 -67.142  0.00  0.00    -0.224 N 
HETATM   22  O   ZIN N   1     -51.489  17.494 -67.714  0.00  0.00    -0.155 OA
ATOM     23  HN  ZIN N   1     -52.000  16.166 -66.189  1.00  0.00     0.198 HD
HETATM   24  N   ZIN N   1     -51.075  17.392 -68.949  0.00  0.00    -0.234 N 
ATOM     25  HN  ZIN N   1     -50.861  18.158 -69.588  1.00  0.00     0.197 HD
BRANCH  20  26
HETATM   26  N   ZIN N   1     -51.444  14.016 -67.844  0.00  0.00    -0.382 N 
HETATM   27  H   ZIN N   1     -51.745  13.657 -66.928  0.00  0.00     0.157 HD
HETATM   28  H   ZIN N   1     -51.201  13.343 -68.581  0.00  0.00     0.157 HD
ENDBRANCH  20  26
ENDBRANCH   6  19
TORSDOF 4
ENDMDL
