MODEL 1
REMARK VINA RESULT:     -10.0      0.000      0.000
REMARK  4 active torsions:
REMARK  status: ('A' for Active; 'I' for Inactive)
REMARK    1  A    between atoms: N_1  and  C_2 
REMARK    2  A    between atoms: C_8  and  C_9 
REMARK    3  A    between atoms: C_14  and  C_15 
REMARK    4  A    between atoms: C_21  and  N_22 
ROOT
HETATM    1  C   ZIN N   1     -20.914 -36.912  -4.232  0.00  0.00     0.154 A 
HETATM    2  N   ZIN N   1     -21.239 -35.628  -4.008  0.00  0.00    -0.282 N 
ATOM      3  HN  ZIN N   1     -21.758 -35.265  -3.209  1.00  0.00     0.188 HD
HETATM    4  N   ZIN N   1     -20.764 -34.925  -5.016  0.00  0.00    -0.282 N 
ATOM      5  HN  ZIN N   1     -20.845 -33.916  -5.143  1.00  0.00     0.188 HD
HETATM    6  C   ZIN N   1     -20.152 -35.785  -5.847  0.00  0.00     0.154 A 
HETATM    7  N   ZIN N   1     -20.225 -37.052  -5.385  0.00  0.00    -0.322 N 
HETATM    8  H   ZIN N   1     -19.866 -37.874  -5.790  0.00  0.00     0.169 HD
ENDROOT
BRANCH   1   9
HETATM    9  C   ZIN N   1     -21.271 -38.012  -3.324  0.00  0.00     0.147 A 
HETATM   10  C   ZIN N   1     -20.526 -38.554  -2.300  0.00  0.00     0.154 A 
HETATM   11  N   ZIN N   1     -21.248 -39.536  -1.742  0.00  0.00    -0.224 N 
HETATM   12  O   ZIN N   1     -22.372 -39.576  -2.405  0.00  0.00    -0.155 OA
ATOM     13  HN  ZIN N   1     -20.975 -40.131  -0.959  1.00  0.00     0.198 HD
HETATM   14  N   ZIN N   1     -22.435 -38.685  -3.360  0.00  0.00    -0.234 N 
ATOM     15  HN  ZIN N   1     -23.210 -38.532  -4.004  1.00  0.00     0.197 HD
BRANCH  10  16
HETATM   16  N   ZIN N   1     -19.228 -38.183  -1.869  0.00  0.00    -0.382 N 
HETATM   17  H   ZIN N   1     -19.086 -37.452  -1.160  0.00  0.00     0.157 HD
HETATM   18  H   ZIN N   1     -18.402 -38.647  -2.270  0.00  0.00     0.157 HD
ENDBRANCH  10  16
ENDBRANCH   1   9
BRANCH   6  19
HETATM   19  C   ZIN N   1     -19.491 -35.379  -7.096  0.00  0.00     0.147 A 
HETATM   20  C   ZIN N   1     -18.365 -34.602  -7.257  0.00  0.00     0.154 A 
HETATM   21  N   ZIN N   1     -18.125 -34.493  -8.573  0.00  0.00    -0.224 N 
HETATM   22  O   ZIN N   1     -19.068 -35.174  -9.166  0.00  0.00    -0.155 OA
ATOM     23  HN  ZIN N   1     -17.363 -33.982  -9.018  1.00  0.00     0.198 HD
HETATM   24  N   ZIN N   1     -19.907 -35.722  -8.328  0.00  0.00    -0.234 N 
ATOM     25  HN  ZIN N   1     -20.718 -36.297  -8.561  1.00  0.00     0.197 HD
BRANCH  20  26
HETATM   26  N   ZIN N   1     -17.564 -34.001  -6.255  0.00  0.00    -0.382 N 
HETATM   27  H   ZIN N   1     -18.005 -33.603  -5.415  0.00  0.00     0.157 HD
HETATM   28  H   ZIN N   1     -16.542 -33.950  -6.345  0.00  0.00     0.157 HD
ENDBRANCH  20  26
ENDBRANCH   6  19
TORSDOF 4
ENDMDL
MODEL 2
REMARK VINA RESULT:     -10.0      0.100      6.064
REMARK  4 active torsions:
REMARK  status: ('A' for Active; 'I' for Inactive)
REMARK    1  A    between atoms: N_1  and  C_2 
REMARK    2  A    between atoms: C_8  and  C_9 
REMARK    3  A    between atoms: C_14  and  C_15 
REMARK    4  A    between atoms: C_21  and  N_22 
ROOT
HETATM    1  C   ZIN N   1     -20.139 -35.788  -5.859  0.00  0.00     0.154 A 
HETATM    2  N   ZIN N   1     -20.775 -34.951  -5.022  0.00  0.00    -0.282 N 
ATOM      3  HN  ZIN N   1     -20.886 -33.945  -5.141  1.00  0.00     0.188 HD
HETATM    4  N   ZIN N   1     -21.225 -35.675  -4.018  0.00  0.00    -0.282 N 
ATOM      5  HN  ZIN N   1     -21.753 -35.334  -3.214  1.00  0.00     0.188 HD
HETATM    6  C   ZIN N   1     -20.863 -36.947  -4.250  0.00  0.00     0.154 A 
HETATM    7  N   ZIN N   1     -20.173 -37.059  -5.405  0.00  0.00    -0.322 N 
HETATM    8  H   ZIN N   1     -19.789 -37.869  -5.815  0.00  0.00     0.169 HD
ENDROOT
BRANCH   1   9
HETATM    9  C   ZIN N   1     -19.494 -35.355  -7.108  0.00  0.00     0.147 A 
HETATM   10  C   ZIN N   1     -18.385 -34.552  -7.267  0.00  0.00     0.154 A 
HETATM   11  N   ZIN N   1     -18.156 -34.423  -8.581  0.00  0.00    -0.224 N 
HETATM   12  O   ZIN N   1     -19.087 -35.119  -9.177  0.00  0.00    -0.155 OA
ATOM     13  HN  ZIN N   1     -17.407 -33.891  -9.026  1.00  0.00     0.198 HD
HETATM   14  N   ZIN N   1     -19.910 -35.694  -8.341  0.00  0.00    -0.234 N 
ATOM     15  HN  ZIN N   1     -20.710 -36.282  -8.576  1.00  0.00     0.197 HD
BRANCH  10  16
HETATM   16  N   ZIN N   1     -17.592 -33.946  -6.262  0.00  0.00    -0.382 N 
HETATM   17  H   ZIN N   1     -17.973 -33.735  -5.330  0.00  0.00     0.157 HD
HETATM   18  H   ZIN N   1     -16.611 -33.706  -6.458  0.00  0.00     0.157 HD
ENDBRANCH  10  16
ENDBRANCH   1   9
BRANCH   6  19
HETATM   19  C   ZIN N   1     -21.185 -38.063  -3.347  0.00  0.00     0.147 A 
HETATM   20  C   ZIN N   1     -20.460 -38.537  -2.277  0.00  0.00     0.154 A 
HETATM   21  N   ZIN N   1     -21.135 -39.566  -1.745  0.00  0.00    -0.224 N 
HETATM   22  O   ZIN N   1     -22.214 -39.698  -2.469  0.00  0.00    -0.155 OA
ATOM     23  HN  ZIN N   1     -20.862 -40.131  -0.941  1.00  0.00     0.198 HD
HETATM   24  N   ZIN N   1     -22.290 -38.824  -3.438  0.00  0.00    -0.234 N 
ATOM     25  HN  ZIN N   1     -23.039 -38.736  -4.126  1.00  0.00     0.197 HD
BRANCH  20  26
HETATM   26  N   ZIN N   1     -19.220 -38.064  -1.780  0.00  0.00    -0.382 N 
HETATM   27  H   ZIN N   1     -18.453 -38.726  -1.599  0.00  0.00     0.157 HD
HETATM   28  H   ZIN N   1     -19.062 -37.066  -1.592  0.00  0.00     0.157 HD
ENDBRANCH  20  26
ENDBRANCH   6  19
TORSDOF 4
ENDMDL
MODEL 3
REMARK VINA RESULT:      -9.9      1.306      1.792
REMARK  4 active torsions:
REMARK  status: ('A' for Active; 'I' for Inactive)
REMARK    1  A    between atoms: N_1  and  C_2 
REMARK    2  A    between atoms: C_8  and  C_9 
REMARK    3  A    between atoms: C_14  and  C_15 
REMARK    4  A    between atoms: C_21  and  N_22 
ROOT
HETATM    1  C   ZIN N   1     -20.970 -37.072  -3.857  0.00  0.00     0.154 A 
HETATM    2  N   ZIN N   1     -21.470 -35.826  -3.832  0.00  0.00    -0.282 N 
ATOM      3  HN  ZIN N   1     -22.278 -35.508  -3.297  1.00  0.00     0.188 HD
HETATM    4  N   ZIN N   1     -20.722 -35.091  -4.630  0.00  0.00    -0.282 N 
ATOM      5  HN  ZIN N   1     -20.841 -34.097  -4.827  1.00  0.00     0.188 HD
HETATM    6  C   ZIN N   1     -19.770 -35.894  -5.134  0.00  0.00     0.154 A 
HETATM    7  N   ZIN N   1     -19.894 -37.155  -4.669  0.00  0.00    -0.322 N 
HETATM    8  H   ZIN N   1     -19.337 -37.942  -4.873  0.00  0.00     0.169 HD
ENDROOT
BRANCH   1   9
HETATM    9  C   ZIN N   1     -21.536 -38.192  -3.089  0.00  0.00     0.147 A 
HETATM   10  C   ZIN N   1     -21.882 -38.228  -1.757  0.00  0.00     0.154 A 
HETATM   11  N   ZIN N   1     -22.357 -39.453  -1.489  0.00  0.00    -0.224 N 
HETATM   12  O   ZIN N   1     -22.296 -40.114  -2.613  0.00  0.00    -0.155 OA
ATOM     13  HN  ZIN N   1     -22.697 -39.798  -0.591  1.00  0.00     0.198 HD
HETATM   14  N   ZIN N   1     -21.813 -39.405  -3.599  0.00  0.00    -0.234 N 
ATOM     15  HN  ZIN N   1     -21.673 -39.711  -4.562  1.00  0.00     0.197 HD
BRANCH  10  16
HETATM   16  N   ZIN N   1     -21.777 -37.193  -0.796  0.00  0.00    -0.382 N 
HETATM   17  H   ZIN N   1     -22.462 -37.094  -0.035  0.00  0.00     0.157 HD
HETATM   18  H   ZIN N   1     -21.003 -36.517  -0.852  0.00  0.00     0.157 HD
ENDBRANCH  10  16
ENDBRANCH   1   9
BRANCH   6  19
HETATM   19  C   ZIN N   1     -18.734 -35.438  -6.073  0.00  0.00     0.147 A 
HETATM   20  C   ZIN N   1     -18.802 -35.346  -7.445  0.00  0.00     0.154 A 
HETATM   21  N   ZIN N   1     -17.623 -34.880  -7.885  0.00  0.00    -0.224 N 
HETATM   22  O   ZIN N   1     -16.888 -34.704  -6.820  0.00  0.00    -0.155 OA
ATOM     23  HN  ZIN N   1     -17.356 -34.701  -8.853  1.00  0.00     0.198 HD
HETATM   24  N   ZIN N   1     -17.507 -35.023  -5.714  0.00  0.00    -0.234 N 
ATOM     25  HN  ZIN N   1     -17.133 -34.967  -4.766  1.00  0.00     0.197 HD
BRANCH  20  26
HETATM   26  N   ZIN N   1     -19.890 -35.670  -8.293  0.00  0.00    -0.382 N 
HETATM   27  H   ZIN N   1     -19.729 -35.832  -9.297  0.00  0.00     0.157 HD
HETATM   28  H   ZIN N   1     -20.848 -35.747  -7.931  0.00  0.00     0.157 HD
ENDBRANCH  20  26
ENDBRANCH   6  19
TORSDOF 4
ENDMDL
MODEL 4
REMARK VINA RESULT:      -9.7      1.317      6.339
REMARK  4 active torsions:
REMARK  status: ('A' for Active; 'I' for Inactive)
REMARK    1  A    between atoms: N_1  and  C_2 
REMARK    2  A    between atoms: C_8  and  C_9 
REMARK    3  A    between atoms: C_14  and  C_15 
REMARK    4  A    between atoms: C_21  and  N_22 
ROOT
HETATM    1  C   ZIN N   1     -19.586 -35.362  -5.475  0.00  0.00     0.154 A 
HETATM    2  N   ZIN N   1     -20.787 -34.877  -5.119  0.00  0.00    -0.282 N 
ATOM      3  HN  ZIN N   1     -21.239 -34.044  -5.495  1.00  0.00     0.188 HD
HETATM    4  N   ZIN N   1     -21.269 -35.677  -4.190  0.00  0.00    -0.282 N 
ATOM      5  HN  ZIN N   1     -22.166 -35.581  -3.714  1.00  0.00     0.188 HD
HETATM    6  C   ZIN N   1     -20.360 -36.645  -3.989  0.00  0.00     0.154 A 
HETATM    7  N   ZIN N   1     -19.281 -36.480  -4.783  0.00  0.00    -0.322 N 
HETATM    8  H   ZIN N   1     -18.471 -37.038  -4.842  0.00  0.00     0.169 HD
ENDROOT
BRANCH   1   9
HETATM    9  C   ZIN N   1     -18.727 -34.740  -6.495  0.00  0.00     0.147 A 
HETATM   10  C   ZIN N   1     -18.840 -34.804  -7.866  0.00  0.00     0.154 A 
HETATM   11  N   ZIN N   1     -17.838 -34.087  -8.395  0.00  0.00    -0.224 N 
HETATM   12  O   ZIN N   1     -17.161 -33.617  -7.382  0.00  0.00    -0.155 OA
ATOM     13  HN  ZIN N   1     -17.645 -33.937  -9.385  1.00  0.00     0.198 HD
HETATM   14  N   ZIN N   1     -17.651 -33.979  -6.226  0.00  0.00    -0.234 N 
ATOM     15  HN  ZIN N   1     -17.290 -33.733  -5.304  1.00  0.00     0.197 HD
BRANCH  10  16
HETATM   16  N   ZIN N   1     -19.815 -35.488  -8.633  0.00  0.00    -0.382 N 
HETATM   17  H   ZIN N   1     -20.201 -36.391  -8.331  0.00  0.00     0.157 HD
HETATM   18  H   ZIN N   1     -20.151 -35.080  -9.516  0.00  0.00     0.157 HD
ENDBRANCH  10  16
ENDBRANCH   1   9
BRANCH   6  19
HETATM   19  C   ZIN N   1     -20.536 -37.738  -3.020  0.00  0.00     0.147 A 
HETATM   20  C   ZIN N   1     -20.586 -39.094  -3.257  0.00  0.00     0.154 A 
HETATM   21  N   ZIN N   1     -20.758 -39.712  -2.079  0.00  0.00    -0.224 N 
HETATM   22  O   ZIN N   1     -20.810 -38.764  -1.182  0.00  0.00    -0.155 OA
ATOM     23  HN  ZIN N   1     -20.835 -40.715  -1.917  1.00  0.00     0.198 HD
HETATM   24  N   ZIN N   1     -20.682 -37.568  -1.695  0.00  0.00    -0.234 N 
ATOM     25  HN  ZIN N   1     -20.690 -36.682  -1.189  1.00  0.00     0.197 HD
BRANCH  20  26
HETATM   26  N   ZIN N   1     -20.479 -39.771  -4.497  0.00  0.00    -0.382 N 
HETATM   27  H   ZIN N   1     -21.330 -40.041  -5.010  0.00  0.00     0.157 HD
HETATM   28  H   ZIN N   1     -19.565 -40.005  -4.904  0.00  0.00     0.157 HD
ENDBRANCH  20  26
ENDBRANCH   6  19
TORSDOF 4
ENDMDL
MODEL 5
REMARK VINA RESULT:      -9.3      1.459      2.130
REMARK  4 active torsions:
REMARK  status: ('A' for Active; 'I' for Inactive)
REMARK    1  A    between atoms: N_1  and  C_2 
REMARK    2  A    between atoms: C_8  and  C_9 
REMARK    3  A    between atoms: C_14  and  C_15 
REMARK    4  A    between atoms: C_21  and  N_22 
ROOT
HETATM    1  C   ZIN N   1     -19.822 -37.049  -4.441  0.00  0.00     0.154 A 
HETATM    2  N   ZIN N   1     -18.606 -37.588  -4.630  0.00  0.00    -0.282 N 
ATOM      3  HN  ZIN N   1     -18.238 -38.427  -4.181  1.00  0.00     0.188 HD
HETATM    4  N   ZIN N   1     -17.975 -36.828  -5.502  0.00  0.00    -0.282 N 
ATOM      5  HN  ZIN N   1     -17.029 -36.969  -5.856  1.00  0.00     0.188 HD
HETATM    6  C   ZIN N   1     -18.812 -35.833  -5.840  0.00  0.00     0.154 A 
HETATM    7  N   ZIN N   1     -19.990 -35.938  -5.189  0.00  0.00    -0.322 N 
HETATM    8  H   ZIN N   1     -20.778 -35.349  -5.246  0.00  0.00     0.169 HD
ENDROOT
BRANCH   1   9
HETATM    9  C   ZIN N   1     -20.829 -37.614  -3.531  0.00  0.00     0.147 A 
HETATM   10  C   ZIN N   1     -21.050 -37.315  -2.204  0.00  0.00     0.154 A 
HETATM   11  N   ZIN N   1     -22.070 -38.073  -1.776  0.00  0.00    -0.224 N 
HETATM   12  O   ZIN N   1     -22.439 -38.790  -2.803  0.00  0.00    -0.155 OA
ATOM     13  HN  ZIN N   1     -22.476 -38.086  -0.840  1.00  0.00     0.198 HD
HETATM   14  N   ZIN N   1     -21.729 -38.553  -3.874  0.00  0.00    -0.234 N 
ATOM     15  HN  ZIN N   1     -21.835 -38.993  -4.789  1.00  0.00     0.197 HD
BRANCH  10  16
HETATM   16  N   ZIN N   1     -20.358 -36.385  -1.389  0.00  0.00    -0.382 N 
HETATM   17  H   ZIN N   1     -19.444 -36.609  -0.976  0.00  0.00     0.157 HD
HETATM   18  H   ZIN N   1     -20.772 -35.463  -1.199  0.00  0.00     0.157 HD
ENDBRANCH  10  16
ENDBRANCH   1   9
BRANCH   6  19
HETATM   19  C   ZIN N   1     -18.469 -34.772  -6.799  0.00  0.00     0.147 A 
HETATM   20  C   ZIN N   1     -18.913 -34.608  -8.092  0.00  0.00     0.154 A 
HETATM   21  N   ZIN N   1     -18.339 -33.503  -8.588  0.00  0.00    -0.224 N 
HETATM   22  O   ZIN N   1     -17.585 -33.031  -7.632  0.00  0.00    -0.155 OA
ATOM     23  HN  ZIN N   1     -18.464 -33.111  -9.521  1.00  0.00     0.198 HD
HETATM   24  N   ZIN N   1     -17.629 -33.753  -6.543  0.00  0.00    -0.234 N 
ATOM     25  HN  ZIN N   1     -17.126 -33.579  -5.672  1.00  0.00     0.197 HD
BRANCH  20  26
HETATM   26  N   ZIN N   1     -19.814 -35.426  -8.819  0.00  0.00    -0.382 N 
HETATM   27  H   ZIN N   1     -19.883 -35.331  -9.841  0.00  0.00     0.157 HD
HETATM   28  H   ZIN N   1     -20.409 -36.119  -8.348  0.00  0.00     0.157 HD
ENDBRANCH  20  26
ENDBRANCH   6  19
TORSDOF 4
ENDMDL
MODEL 6
REMARK VINA RESULT:      -9.3      1.458      6.358
REMARK  4 active torsions:
REMARK  status: ('A' for Active; 'I' for Inactive)
REMARK    1  A    between atoms: N_1  and  C_2 
REMARK    2  A    between atoms: C_8  and  C_9 
REMARK    3  A    between atoms: C_14  and  C_15 
REMARK    4  A    between atoms: C_21  and  N_22 
ROOT
HETATM    1  C   ZIN N   1     -18.794 -35.859  -5.824  0.00  0.00     0.154 A 
HETATM    2  N   ZIN N   1     -17.961 -36.854  -5.474  0.00  0.00    -0.282 N 
ATOM      3  HN  ZIN N   1     -17.011 -36.998  -5.817  1.00  0.00     0.188 HD
HETATM    4  N   ZIN N   1     -18.601 -37.608  -4.605  0.00  0.00    -0.282 N 
ATOM      5  HN  ZIN N   1     -18.240 -38.446  -4.148  1.00  0.00     0.188 HD
HETATM    6  C   ZIN N   1     -19.819 -37.069  -4.430  0.00  0.00     0.154 A 
HETATM    7  N   ZIN N   1     -19.979 -35.961  -5.185  0.00  0.00    -0.322 N 
HETATM    8  H   ZIN N   1     -20.766 -35.373  -5.254  0.00  0.00     0.169 HD
ENDROOT
BRANCH   1   9
HETATM    9  C   ZIN N   1     -18.440 -34.802  -6.784  0.00  0.00     0.147 A 
HETATM   10  C   ZIN N   1     -18.886 -34.634  -8.076  0.00  0.00     0.154 A 
HETATM   11  N   ZIN N   1     -18.298 -33.537  -8.574  0.00  0.00    -0.224 N 
HETATM   12  O   ZIN N   1     -17.538 -33.073  -7.619  0.00  0.00    -0.155 OA
ATOM     13  HN  ZIN N   1     -18.421 -33.143  -9.508  1.00  0.00     0.198 HD
HETATM   14  N   ZIN N   1     -17.587 -33.794  -6.530  0.00  0.00    -0.234 N 
ATOM     15  HN  ZIN N   1     -17.080 -33.626  -5.661  1.00  0.00     0.197 HD
BRANCH  10  16
HETATM   16  N   ZIN N   1     -19.798 -35.441  -8.800  0.00  0.00    -0.382 N 
HETATM   17  H   ZIN N   1     -20.806 -35.243  -8.802  0.00  0.00     0.157 HD
HETATM   18  H   ZIN N   1     -19.454 -36.247  -9.340  0.00  0.00     0.157 HD
ENDBRANCH  10  16
ENDBRANCH   1   9
BRANCH   6  19
HETATM   19  C   ZIN N   1     -20.836 -37.629  -3.528  0.00  0.00     0.147 A 
HETATM   20  C   ZIN N   1     -21.066 -37.329  -2.204  0.00  0.00     0.154 A 
HETATM   21  N   ZIN N   1     -22.093 -38.081  -1.783  0.00  0.00    -0.224 N 
HETATM   22  O   ZIN N   1     -22.457 -38.797  -2.813  0.00  0.00    -0.155 OA
ATOM     23  HN  ZIN N   1     -22.505 -38.093  -0.850  1.00  0.00     0.198 HD
HETATM   24  N   ZIN N   1     -21.737 -38.563  -3.878  0.00  0.00    -0.234 N 
ATOM     25  HN  ZIN N   1     -21.839 -39.002  -4.794  1.00  0.00     0.197 HD
BRANCH  20  26
HETATM   26  N   ZIN N   1     -20.375 -36.403  -1.382  0.00  0.00    -0.382 N 
HETATM   27  H   ZIN N   1     -20.796 -36.088  -0.497  0.00  0.00     0.157 HD
HETATM   28  H   ZIN N   1     -19.455 -36.032  -1.649  0.00  0.00     0.157 HD
ENDBRANCH  20  26
ENDBRANCH   6  19
TORSDOF 4
ENDMDL
MODEL 7
REMARK VINA RESULT:      -9.2      1.337      1.892
REMARK  4 active torsions:
REMARK  status: ('A' for Active; 'I' for Inactive)
REMARK    1  A    between atoms: N_1  and  C_2 
REMARK    2  A    between atoms: C_8  and  C_9 
REMARK    3  A    between atoms: C_14  and  C_15 
REMARK    4  A    between atoms: C_21  and  N_22 
ROOT
HETATM    1  C   ZIN N   1     -20.132 -36.034  -4.742  0.00  0.00     0.154 A 
HETATM    2  N   ZIN N   1     -21.013 -35.054  -5.003  0.00  0.00    -0.282 N 
ATOM      3  HN  ZIN N   1     -21.778 -34.752  -4.401  1.00  0.00     0.188 HD
HETATM    4  N   ZIN N   1     -20.703 -34.558  -6.184  0.00  0.00    -0.282 N 
ATOM      5  HN  ZIN N   1     -21.184 -33.799  -6.666  1.00  0.00     0.188 HD
HETATM    6  C   ZIN N   1     -19.636 -35.238  -6.633  0.00  0.00     0.154 A 
HETATM    7  N   ZIN N   1     -19.244 -36.180  -5.750  0.00  0.00    -0.322 N 
HETATM    8  H   ZIN N   1     -18.497 -36.817  -5.822  0.00  0.00     0.169 HD
ENDROOT
BRANCH   1   9
HETATM    9  C   ZIN N   1     -20.147 -36.835  -3.509  0.00  0.00     0.147 A 
HETATM   10  C   ZIN N   1     -21.101 -37.732  -3.081  0.00  0.00     0.154 A 
HETATM   11  N   ZIN N   1     -20.701 -38.226  -1.901  0.00  0.00    -0.224 N 
HETATM   12  O   ZIN N   1     -19.559 -37.649  -1.639  0.00  0.00    -0.155 OA
ATOM     13  HN  ZIN N   1     -21.187 -38.914  -1.325  1.00  0.00     0.198 HD
HETATM   14  N   ZIN N   1     -19.186 -36.809  -2.569  0.00  0.00    -0.234 N 
ATOM     15  HN  ZIN N   1     -18.335 -36.246  -2.579  1.00  0.00     0.197 HD
BRANCH  10  16
HETATM   16  N   ZIN N   1     -22.305 -38.105  -3.728  0.00  0.00    -0.382 N 
HETATM   17  H   ZIN N   1     -22.666 -37.582  -4.536  0.00  0.00     0.157 HD
HETATM   18  H   ZIN N   1     -22.839 -38.916  -3.389  0.00  0.00     0.157 HD
ENDBRANCH  10  16
ENDBRANCH   1   9
BRANCH   6  19
HETATM   19  C   ZIN N   1     -18.989 -34.974  -7.928  0.00  0.00     0.147 A 
HETATM   20  C   ZIN N   1     -17.740 -34.447  -8.170  0.00  0.00     0.154 A 
HETATM   21  N   ZIN N   1     -17.570 -34.386  -9.499  0.00  0.00    -0.224 N 
HETATM   22  O   ZIN N   1     -18.671 -34.855 -10.023  0.00  0.00    -0.155 OA
ATOM     23  HN  ZIN N   1     -16.750 -34.042  -9.999  1.00  0.00     0.198 HD
HETATM   24  N   ZIN N   1     -19.548 -35.220  -9.125  0.00  0.00    -0.234 N 
ATOM     25  HN  ZIN N   1     -20.474 -35.614  -9.299  1.00  0.00     0.197 HD
BRANCH  20  26
HETATM   26  N   ZIN N   1     -16.768 -34.027  -7.229  0.00  0.00    -0.382 N 
HETATM   27  H   ZIN N   1     -15.855 -33.680  -7.553  0.00  0.00     0.157 HD
HETATM   28  H   ZIN N   1     -16.950 -34.061  -6.218  0.00  0.00     0.157 HD
ENDBRANCH  20  26
ENDBRANCH   6  19
TORSDOF 4
ENDMDL
MODEL 8
REMARK VINA RESULT:      -9.1      2.635      4.038
REMARK  4 active torsions:
REMARK  status: ('A' for Active; 'I' for Inactive)
REMARK    1  A    between atoms: N_1  and  C_2 
REMARK    2  A    between atoms: C_8  and  C_9 
REMARK    3  A    between atoms: C_14  and  C_15 
REMARK    4  A    between atoms: C_21  and  N_22 
ROOT
HETATM    1  C   ZIN N   1     -18.890 -35.765  -7.084  0.00  0.00     0.154 A 
HETATM    2  N   ZIN N   1     -20.019 -35.719  -7.811  0.00  0.00    -0.282 N 
ATOM      3  HN  ZIN N   1     -20.954 -35.974  -7.494  1.00  0.00     0.188 HD
HETATM    4  N   ZIN N   1     -19.691 -35.282  -9.010  0.00  0.00    -0.282 N 
ATOM      5  HN  ZIN N   1     -20.325 -35.136  -9.796  1.00  0.00     0.188 HD
HETATM    6  C   ZIN N   1     -18.365 -35.065  -9.006  0.00  0.00     0.154 A 
HETATM    7  N   ZIN N   1     -17.823 -35.359  -7.805  0.00  0.00    -0.322 N 
HETATM    8  H   ZIN N   1     -16.881 -35.294  -7.524  0.00  0.00     0.169 HD
ENDROOT
BRANCH   1   9
HETATM    9  C   ZIN N   1     -18.843 -36.205  -5.681  0.00  0.00     0.147 A 
HETATM   10  C   ZIN N   1     -19.672 -35.846  -4.642  0.00  0.00     0.154 A 
HETATM   11  N   ZIN N   1     -19.257 -36.490  -3.543  0.00  0.00    -0.224 N 
HETATM   12  O   ZIN N   1     -18.226 -37.201  -3.912  0.00  0.00    -0.155 OA
ATOM     13  HN  ZIN N   1     -19.663 -36.437  -2.608  1.00  0.00     0.198 HD
HETATM   14  N   ZIN N   1     -17.938 -37.065  -5.180  0.00  0.00    -0.234 N 
ATOM     15  HN  ZIN N   1     -17.180 -37.519  -5.688  1.00  0.00     0.197 HD
BRANCH  10  16
HETATM   16  N   ZIN N   1     -20.779 -34.961  -4.670  0.00  0.00    -0.382 N 
HETATM   17  H   ZIN N   1     -20.680 -33.968  -4.423  0.00  0.00     0.157 HD
HETATM   18  H   ZIN N   1     -21.708 -35.310  -4.942  0.00  0.00     0.157 HD
ENDBRANCH  10  16
ENDBRANCH   1   9
BRANCH   6  19
HETATM   19  C   ZIN N   1     -17.618 -34.569 -10.171  0.00  0.00     0.147 A 
HETATM   20  C   ZIN N   1     -17.209 -33.283 -10.443  0.00  0.00     0.154 A 
HETATM   21  N   ZIN N   1     -16.559 -33.297 -11.617  0.00  0.00    -0.224 N 
HETATM   22  O   ZIN N   1     -16.582 -34.538 -12.023  0.00  0.00    -0.155 OA
ATOM     23  HN  ZIN N   1     -16.134 -32.502 -12.093  1.00  0.00     0.198 HD
HETATM   24  N   ZIN N   1     -17.203 -35.335 -11.195  0.00  0.00    -0.234 N 
ATOM     25  HN  ZIN N   1     -17.344 -36.341 -11.303  1.00  0.00     0.197 HD
BRANCH  20  26
HETATM   26  N   ZIN N   1     -17.408 -32.116  -9.664  0.00  0.00    -0.382 N 
HETATM   27  H   ZIN N   1     -16.630 -31.728  -9.113  0.00  0.00     0.157 HD
HETATM   28  H   ZIN N   1     -18.318 -31.641  -9.632  0.00  0.00     0.157 HD
ENDBRANCH  20  26
ENDBRANCH   6  19
TORSDOF 4
ENDMDL
MODEL 9
REMARK VINA RESULT:      -9.0      2.580      4.025
REMARK  4 active torsions:
REMARK  status: ('A' for Active; 'I' for Inactive)
REMARK    1  A    between atoms: N_1  and  C_2 
REMARK    2  A    between atoms: C_8  and  C_9 
REMARK    3  A    between atoms: C_14  and  C_15 
REMARK    4  A    between atoms: C_21  and  N_22 
ROOT
HETATM    1  C   ZIN N   1     -19.434 -35.131  -6.979  0.00  0.00     0.154 A 
HETATM    2  N   ZIN N   1     -20.027 -35.719  -8.031  0.00  0.00    -0.282 N 
ATOM      3  HN  ZIN N   1     -20.710 -36.476  -7.997  1.00  0.00     0.188 HD
HETATM    4  N   ZIN N   1     -19.559 -35.136  -9.116  0.00  0.00    -0.282 N 
ATOM      5  HN  ZIN N   1     -19.813 -35.356 -10.079  1.00  0.00     0.188 HD
HETATM    6  C   ZIN N   1     -18.686 -34.196  -8.717  0.00  0.00     0.154 A 
HETATM    7  N   ZIN N   1     -18.579 -34.163  -7.372  0.00  0.00    -0.322 N 
HETATM    8  H   ZIN N   1     -18.016 -33.577  -6.815  0.00  0.00     0.169 HD
ENDROOT
BRANCH   1   9
HETATM    9  C   ZIN N   1     -19.697 -35.508  -5.581  0.00  0.00     0.147 A 
HETATM   10  C   ZIN N   1     -18.995 -36.384  -4.783  0.00  0.00     0.154 A 
HETATM   11  N   ZIN N   1     -19.594 -36.419  -3.585  0.00  0.00    -0.224 N 
HETATM   12  O   ZIN N   1     -20.608 -35.600  -3.667  0.00  0.00    -0.155 OA
ATOM     13  HN  ZIN N   1     -19.316 -36.972  -2.773  1.00  0.00     0.198 HD
HETATM   14  N   ZIN N   1     -20.712 -35.031  -4.839  0.00  0.00    -0.234 N 
ATOM     15  HN  ZIN N   1     -21.422 -34.360  -5.133  1.00  0.00     0.197 HD
BRANCH  10  16
HETATM   16  N   ZIN N   1     -17.842 -37.139  -5.114  0.00  0.00    -0.382 N 
HETATM   17  H   ZIN N   1     -17.510 -37.215  -6.083  0.00  0.00     0.157 HD
HETATM   18  H   ZIN N   1     -17.319 -37.627  -4.374  0.00  0.00     0.157 HD
ENDBRANCH  10  16
ENDBRANCH   1   9
BRANCH   6  19
HETATM   19  C   ZIN N   1     -17.949 -33.324  -9.645  0.00  0.00     0.147 A 
HETATM   20  C   ZIN N   1     -17.109 -33.684 -10.675  0.00  0.00     0.154 A 
HETATM   21  N   ZIN N   1     -16.660 -32.559 -11.252  0.00  0.00    -0.224 N 
HETATM   22  O   ZIN N   1     -17.210 -31.575 -10.592  0.00  0.00    -0.155 OA
ATOM     23  HN  ZIN N   1     -16.021 -32.488 -12.043  1.00  0.00     0.198 HD
HETATM   24  N   ZIN N   1     -17.988 -31.981  -9.624  0.00  0.00    -0.234 N 
ATOM     25  HN  ZIN N   1     -18.519 -31.394  -8.979  1.00  0.00     0.197 HD
BRANCH  20  26
HETATM   26  N   ZIN N   1     -16.747 -34.988 -11.096  0.00  0.00    -0.382 N 
HETATM   27  H   ZIN N   1     -16.062 -35.531 -10.553  0.00  0.00     0.157 HD
HETATM   28  H   ZIN N   1     -17.152 -35.411 -11.940  0.00  0.00     0.157 HD
ENDBRANCH  20  26
ENDBRANCH   6  19
TORSDOF 4
ENDMDL
