MODEL 1
REMARK VINA RESULT:      -9.7      0.000      0.000
REMARK  4 active torsions:
REMARK  status: ('A' for Active; 'I' for Inactive)
REMARK    1  A    between atoms: O_1  and  C_2 
REMARK    2  A    between atoms: C_2  and  O_3 
REMARK    3  A    between atoms: C_2  and  C_4 
REMARK    4  A    between atoms: C_11  and  C_12 
REMARK       I    between atoms: C_12  and  N_14 
REMARK       I    between atoms: N_14  and  C_15 
ROOT
HETATM    1  C   ZIN N   1     -19.015 -35.822  -6.072  0.00  0.00     0.136 A 
HETATM    2  N   ZIN N   1     -18.135 -35.576  -7.083  0.00  0.00    -0.357 N 
ATOM      3  HN  ZIN N   1     -18.498 -35.432  -8.025  1.00  0.00     0.165 HD
HETATM    4  C   ZIN N   1     -16.798 -35.514  -6.884  0.00  0.00     0.105 A 
HETATM    5  C   ZIN N   1     -16.289 -35.708  -5.610  0.00  0.00     0.105 A 
HETATM    6  N   ZIN N   1     -17.136 -35.985  -4.586  0.00  0.00    -0.358 N 
ATOM      7  HN  ZIN N   1     -16.748 -36.141  -3.656  1.00  0.00     0.165 HD
HETATM    8  C   ZIN N   1     -18.488 -36.064  -4.757  0.00  0.00     0.135 A 
ENDROOT
BRANCH   8   9
HETATM    9  C   ZIN N   1     -19.314 -36.470  -3.570  0.00  0.00     0.289 C 
HETATM   10  O   ZIN N   1     -19.076 -35.999  -2.475  0.00  0.00    -0.265 OA
HETATM   11  N   ZIN N   1     -20.375 -37.322  -3.716  0.00  0.00    -0.153 N 
HETATM   12  C   ZIN N   1     -21.186 -37.726  -2.610  0.00  0.00     0.700 A 
HETATM   13  H   ZIN N   1     -20.608 -37.699  -4.646  0.00  0.00     0.187 HD
HETATM   14  N   ZIN N   1     -22.252 -38.545  -2.726  0.00  0.00    -0.185 N 
HETATM   15  N   ZIN N   1     -20.977 -37.354  -1.333  0.00  0.00    -0.131 N 
HETATM   16  C   ZIN N   1     -22.688 -38.656  -1.452  0.00  0.00     0.215 A 
ATOM     17  HN  ZIN N   1     -22.633 -38.975  -3.568  1.00  0.00     0.185 HD
HETATM   18  N   ZIN N   1     -21.917 -37.940  -0.617  0.00  0.00    -0.281 N 
HETATM   19  H   ZIN N   1     -22.020 -37.847   0.418  0.00  0.00     0.188 HD
ATOM     20  HN  ZIN N   1     -20.237 -36.742  -0.987  1.00  0.00     0.205 HD
ENDBRANCH   8   9
BRANCH   1  21
HETATM   21  C   ZIN N   1     -20.459 -35.779  -6.442  0.00  0.00     0.162 C 
BRANCH  21  22
HETATM   22  O   ZIN N   1     -21.210 -36.890  -6.538  0.00  0.00    -0.774 OA
HETATM   23  H   ZIN N   1     -21.925 -37.192  -7.063  0.00  0.00     0.167 HD
ENDBRANCH  21  22
BRANCH  21  24
HETATM   24  O   ZIN N   1     -21.071 -34.584  -6.543  0.00  0.00    -0.774 OA
HETATM   25  H   ZIN N   1     -21.857 -34.502  -7.047  0.00  0.00     0.167 HD
ENDBRANCH  21  24
ENDBRANCH   1  21
TORSDOF 4
ENDMDL
MODEL 2
REMARK VINA RESULT:      -9.5      1.994      2.795
REMARK  4 active torsions:
REMARK  status: ('A' for Active; 'I' for Inactive)
REMARK    1  A    between atoms: O_1  and  C_2 
REMARK    2  A    between atoms: C_2  and  O_3 
REMARK    3  A    between atoms: C_2  and  C_4 
REMARK    4  A    between atoms: C_11  and  C_12 
REMARK       I    between atoms: C_12  and  N_14 
REMARK       I    between atoms: N_14  and  C_15 
ROOT
HETATM    1  C   ZIN N   1     -17.773 -35.948  -6.642  0.00  0.00     0.136 A 
HETATM    2  N   ZIN N   1     -17.266 -35.565  -7.847  0.00  0.00    -0.357 N 
ATOM      3  HN  ZIN N   1     -16.253 -35.519  -7.960  1.00  0.00     0.165 HD
HETATM    4  C   ZIN N   1     -18.053 -35.244  -8.900  0.00  0.00     0.105 A 
HETATM    5  C   ZIN N   1     -19.431 -35.302  -8.762  0.00  0.00     0.105 A 
HETATM    6  N   ZIN N   1     -19.970 -35.650  -7.567  0.00  0.00    -0.358 N 
ATOM      7  HN  ZIN N   1     -20.986 -35.674  -7.473  1.00  0.00     0.165 HD
HETATM    8  C   ZIN N   1     -19.202 -35.969  -6.484  0.00  0.00     0.135 A 
ENDROOT
BRANCH   8   9
HETATM    9  C   ZIN N   1     -19.911 -36.246  -5.189  0.00  0.00     0.289 C 
HETATM   10  O   ZIN N   1     -19.910 -35.410  -4.305  0.00  0.00    -0.265 OA
HETATM   11  N   ZIN N   1     -20.611 -37.408  -5.010  0.00  0.00    -0.153 N 
HETATM   12  C   ZIN N   1     -21.302 -37.702  -3.794  0.00  0.00     0.700 A 
HETATM   13  H   ZIN N   1     -20.649 -38.108  -5.766  0.00  0.00     0.187 HD
HETATM   14  N   ZIN N   1     -22.020 -38.827  -3.596  0.00  0.00    -0.185 N 
HETATM   15  N   ZIN N   1     -21.306 -36.909  -2.706  0.00  0.00    -0.131 N 
HETATM   16  C   ZIN N   1     -22.467 -38.683  -2.330  0.00  0.00     0.215 A 
ATOM     17  HN  ZIN N   1     -22.184 -39.597  -4.244  1.00  0.00     0.185 HD
HETATM   18  N   ZIN N   1     -22.034 -37.529  -1.796  0.00  0.00    -0.281 N 
HETATM   19  H   ZIN N   1     -22.222 -37.163  -0.837  0.00  0.00     0.188 HD
ATOM     20  HN  ZIN N   1     -20.838 -36.008  -2.604  1.00  0.00     0.205 HD
ENDBRANCH   8   9
BRANCH   1  21
HETATM   21  C   ZIN N   1     -16.772 -36.344  -5.611  0.00  0.00     0.162 C 
BRANCH  21  22
HETATM   22  O   ZIN N   1     -16.415 -37.625  -5.410  0.00  0.00    -0.774 OA
HETATM   23  H   ZIN N   1     -15.619 -38.115  -5.353  0.00  0.00     0.167 HD
ENDBRANCH  21  22
BRANCH  21  24
HETATM   24  O   ZIN N   1     -16.093 -35.382  -4.958  0.00  0.00    -0.774 OA
HETATM   25  H   ZIN N   1     -15.976 -34.541  -5.354  0.00  0.00     0.167 HD
ENDBRANCH  21  24
ENDBRANCH   1  21
TORSDOF 4
ENDMDL
MODEL 3
REMARK VINA RESULT:      -9.2      3.734      4.673
REMARK  4 active torsions:
REMARK  status: ('A' for Active; 'I' for Inactive)
REMARK    1  A    between atoms: O_1  and  C_2 
REMARK    2  A    between atoms: C_2  and  O_3 
REMARK    3  A    between atoms: C_2  and  C_4 
REMARK    4  A    between atoms: C_11  and  C_12 
REMARK       I    between atoms: C_12  and  N_14 
REMARK       I    between atoms: N_14  and  C_15 
ROOT
HETATM    1  C   ZIN N   1     -19.286 -34.890  -6.862  0.00  0.00     0.136 A 
HETATM    2  N   ZIN N   1     -19.645 -33.854  -7.671  0.00  0.00    -0.357 N 
ATOM      3  HN  ZIN N   1     -20.634 -33.614  -7.751  1.00  0.00     0.165 HD
HETATM    4  C   ZIN N   1     -18.742 -33.130  -8.372  0.00  0.00     0.105 A 
HETATM    5  C   ZIN N   1     -17.395 -33.444  -8.274  0.00  0.00     0.105 A 
HETATM    6  N   ZIN N   1     -17.006 -34.489  -7.502  0.00  0.00    -0.358 N 
ATOM      7  HN  ZIN N   1     -16.013 -34.720  -7.450  1.00  0.00     0.165 HD
HETATM    8  C   ZIN N   1     -17.895 -35.243  -6.791  0.00  0.00     0.135 A 
ENDROOT
BRANCH   8   9
HETATM    9  C   ZIN N   1     -17.356 -36.432  -6.047  0.00  0.00     0.289 C 
HETATM   10  O   ZIN N   1     -17.695 -36.633  -4.896  0.00  0.00    -0.265 OA
HETATM   11  N   ZIN N   1     -16.530 -37.330  -6.668  0.00  0.00    -0.153 N 
HETATM   12  C   ZIN N   1     -16.004 -38.475  -5.992  0.00  0.00     0.700 A 
HETATM   13  H   ZIN N   1     -16.266 -37.189  -7.654  0.00  0.00     0.187 HD
HETATM   14  N   ZIN N   1     -15.208 -39.390  -6.583  0.00  0.00    -0.185 N 
HETATM   15  N   ZIN N   1     -16.224 -38.766  -4.696  0.00  0.00    -0.131 N 
HETATM   16  C   ZIN N   1     -14.951 -40.259  -5.583  0.00  0.00     0.215 A 
ATOM     17  HN  ZIN N   1     -14.881 -39.417  -7.549  1.00  0.00     0.185 HD
HETATM   18  N   ZIN N   1     -15.562 -39.880  -4.448  0.00  0.00    -0.281 N 
HETATM   19  H   ZIN N   1     -15.535 -40.360  -3.522  0.00  0.00     0.188 HD
ATOM     20  HN  ZIN N   1     -16.789 -38.231  -4.036  1.00  0.00     0.205 HD
ENDBRANCH   8   9
BRANCH   1  21
HETATM   21  C   ZIN N   1     -20.393 -35.533  -6.099  0.00  0.00     0.162 C 
BRANCH  21  22
HETATM   22  O   ZIN N   1     -20.900 -36.731  -6.439  0.00  0.00    -0.774 OA
HETATM   23  H   ZIN N   1     -20.988 -37.243  -7.219  0.00  0.00     0.167 HD
ENDBRANCH  21  22
BRANCH  21  24
HETATM   24  O   ZIN N   1     -20.804 -34.970  -4.947  0.00  0.00    -0.774 OA
HETATM   25  H   ZIN N   1     -21.453 -35.399  -4.423  0.00  0.00     0.167 HD
ENDBRANCH  21  24
ENDBRANCH   1  21
TORSDOF 4
ENDMDL
MODEL 4
REMARK VINA RESULT:      -8.9      1.979      3.007
REMARK  4 active torsions:
REMARK  status: ('A' for Active; 'I' for Inactive)
REMARK    1  A    between atoms: O_1  and  C_2 
REMARK    2  A    between atoms: C_2  and  O_3 
REMARK    3  A    between atoms: C_2  and  C_4 
REMARK    4  A    between atoms: C_11  and  C_12 
REMARK       I    between atoms: C_12  and  N_14 
REMARK       I    between atoms: N_14  and  C_15 
ROOT
HETATM    1  C   ZIN N   1     -16.946 -36.671  -5.470  0.00  0.00     0.136 A 
HETATM    2  N   ZIN N   1     -15.876 -35.916  -5.844  0.00  0.00    -0.357 N 
ATOM      3  HN  ZIN N   1     -14.942 -36.317  -5.767  1.00  0.00     0.165 HD
HETATM    4  C   ZIN N   1     -16.006 -34.654  -6.315  0.00  0.00     0.105 A 
HETATM    5  C   ZIN N   1     -17.269 -34.094  -6.426  0.00  0.00     0.105 A 
HETATM    6  N   ZIN N   1     -18.354 -34.809  -6.033  0.00  0.00    -0.358 N 
ATOM      7  HN  ZIN N   1     -19.277 -34.381  -6.105  1.00  0.00     0.165 HD
HETATM    8  C   ZIN N   1     -18.254 -36.080  -5.545  0.00  0.00     0.135 A 
ENDROOT
BRANCH   8   9
HETATM    9  C   ZIN N   1     -19.514 -36.735  -5.054  0.00  0.00     0.289 C 
HETATM   10  O   ZIN N   1     -20.406 -36.998  -5.838  0.00  0.00    -0.265 OA
HETATM   11  N   ZIN N   1     -19.649 -37.096  -3.741  0.00  0.00    -0.153 N 
HETATM   12  C   ZIN N   1     -20.830 -37.726  -3.241  0.00  0.00     0.700 A 
HETATM   13  H   ZIN N   1     -18.884 -36.910  -3.076  0.00  0.00     0.187 HD
HETATM   14  N   ZIN N   1     -20.984 -38.114  -1.959  0.00  0.00    -0.185 N 
HETATM   15  N   ZIN N   1     -21.926 -37.989  -3.978  0.00  0.00    -0.131 N 
HETATM   16  C   ZIN N   1     -22.231 -38.632  -1.946  0.00  0.00     0.215 A 
ATOM     17  HN  ZIN N   1     -20.320 -38.035  -1.189  1.00  0.00     0.185 HD
HETATM   18  N   ZIN N   1     -22.796 -38.554  -3.162  0.00  0.00    -0.281 N 
HETATM   19  H   ZIN N   1     -23.750 -38.873  -3.440  0.00  0.00     0.188 HD
ATOM     20  HN  ZIN N   1     -22.059 -37.791  -4.970  1.00  0.00     0.205 HD
ENDBRANCH   8   9
BRANCH   1  21
HETATM   21  C   ZIN N   1     -16.640 -38.068  -5.048  0.00  0.00     0.162 C 
BRANCH  21  22
HETATM   22  O   ZIN N   1     -15.849 -38.881  -5.772  0.00  0.00    -0.774 OA
HETATM   23  H   ZIN N   1     -15.678 -39.800  -5.828  0.00  0.00     0.167 HD
ENDBRANCH  21  22
BRANCH  21  24
HETATM   24  O   ZIN N   1     -17.046 -38.487  -3.835  0.00  0.00    -0.774 OA
HETATM   25  H   ZIN N   1     -16.552 -38.259  -3.072  0.00  0.00     0.167 HD
ENDBRANCH  21  24
ENDBRANCH   1  21
TORSDOF 4
ENDMDL
MODEL 5
REMARK VINA RESULT:      -8.7      2.182      5.515
REMARK  4 active torsions:
REMARK  status: ('A' for Active; 'I' for Inactive)
REMARK    1  A    between atoms: O_1  and  C_2 
REMARK    2  A    between atoms: C_2  and  O_3 
REMARK    3  A    between atoms: C_2  and  C_4 
REMARK    4  A    between atoms: C_11  and  C_12 
REMARK       I    between atoms: C_12  and  N_14 
REMARK       I    between atoms: N_14  and  C_15 
ROOT
HETATM    1  C   ZIN N   1     -19.614 -37.532  -2.759  0.00  0.00     0.136 A 
HETATM    2  N   ZIN N   1     -19.194 -38.315  -1.727  0.00  0.00    -0.357 N 
ATOM      3  HN  ZIN N   1     -19.702 -38.276  -0.843  1.00  0.00     0.165 HD
HETATM    4  C   ZIN N   1     -18.129 -39.143  -1.829  0.00  0.00     0.105 A 
HETATM    5  C   ZIN N   1     -17.428 -39.208  -3.023  0.00  0.00     0.105 A 
HETATM    6  N   ZIN N   1     -17.801 -38.418  -4.061  0.00  0.00    -0.358 N 
ATOM      7  HN  ZIN N   1     -17.268 -38.463  -4.930  1.00  0.00     0.165 HD
HETATM    8  C   ZIN N   1     -18.865 -37.565  -3.985  0.00  0.00     0.135 A 
ENDROOT
BRANCH   8   9
HETATM    9  C   ZIN N   1     -19.124 -36.674  -5.166  0.00  0.00     0.289 C 
HETATM   10  O   ZIN N   1     -20.081 -36.883  -5.887  0.00  0.00    -0.265 OA
HETATM   11  N   ZIN N   1     -18.329 -35.587  -5.409  0.00  0.00    -0.153 N 
HETATM   12  C   ZIN N   1     -18.549 -34.714  -6.519  0.00  0.00     0.700 A 
HETATM   13  H   ZIN N   1     -17.537 -35.378  -4.783  0.00  0.00     0.187 HD
HETATM   14  N   ZIN N   1     -17.798 -33.622  -6.772  0.00  0.00    -0.185 N 
HETATM   15  N   ZIN N   1     -19.512 -34.883  -7.445  0.00  0.00    -0.131 N 
HETATM   16  C   ZIN N   1     -18.351 -33.128  -7.901  0.00  0.00     0.215 A 
ATOM     17  HN  ZIN N   1     -17.007 -33.260  -6.240  1.00  0.00     0.185 HD
HETATM   18  N   ZIN N   1     -19.381 -33.890  -8.304  0.00  0.00    -0.281 N 
HETATM   19  H   ZIN N   1     -19.985 -33.747  -9.143  0.00  0.00     0.188 HD
ATOM     20  HN  ZIN N   1     -20.206 -35.631  -7.477  1.00  0.00     0.205 HD
ENDBRANCH   8   9
BRANCH   1  21
HETATM   21  C   ZIN N   1     -20.850 -36.736  -2.510  0.00  0.00     0.162 C 
BRANCH  21  22
HETATM   22  O   ZIN N   1     -21.541 -36.151  -3.505  0.00  0.00    -0.774 OA
HETATM   23  H   ZIN N   1     -21.929 -36.412  -4.317  0.00  0.00     0.167 HD
ENDBRANCH  21  22
BRANCH  21  24
HETATM   24  O   ZIN N   1     -21.377 -36.719  -1.272  0.00  0.00    -0.774 OA
HETATM   25  H   ZIN N   1     -21.586 -37.526  -0.841  0.00  0.00     0.167 HD
ENDBRANCH  21  24
ENDBRANCH   1  21
TORSDOF 4
ENDMDL
MODEL 6
REMARK VINA RESULT:      -8.6      2.188      5.901
REMARK  4 active torsions:
REMARK  status: ('A' for Active; 'I' for Inactive)
REMARK    1  A    between atoms: O_1  and  C_2 
REMARK    2  A    between atoms: C_2  and  O_3 
REMARK    3  A    between atoms: C_2  and  C_4 
REMARK    4  A    between atoms: C_11  and  C_12 
REMARK       I    between atoms: C_12  and  N_14 
REMARK       I    between atoms: N_14  and  C_15 
ROOT
HETATM    1  C   ZIN N   1     -19.843 -38.084  -2.618  0.00  0.00     0.136 A 
HETATM    2  N   ZIN N   1     -20.392 -39.100  -1.895  0.00  0.00    -0.357 N 
ATOM      3  HN  ZIN N   1     -19.808 -39.590  -1.216  1.00  0.00     0.165 HD
HETATM    4  C   ZIN N   1     -21.681 -39.483  -2.040  0.00  0.00     0.105 A 
HETATM    5  C   ZIN N   1     -22.488 -38.828  -2.958  0.00  0.00     0.105 A 
HETATM    6  N   ZIN N   1     -21.964 -37.832  -3.716  0.00  0.00    -0.358 N 
ATOM      7  HN  ZIN N   1     -22.563 -37.367  -4.399  1.00  0.00     0.165 HD
HETATM    8  C   ZIN N   1     -20.665 -37.429  -3.599  0.00  0.00     0.135 A 
ENDROOT
BRANCH   8   9
HETATM    9  C   ZIN N   1     -20.175 -36.382  -4.558  0.00  0.00     0.289 C 
HETATM   10  O   ZIN N   1     -19.626 -35.381  -4.136  0.00  0.00    -0.265 OA
HETATM   11  N   ZIN N   1     -20.283 -36.566  -5.910  0.00  0.00    -0.153 N 
HETATM   12  C   ZIN N   1     -19.822 -35.594  -6.851  0.00  0.00     0.700 A 
HETATM   13  H   ZIN N   1     -20.713 -37.427  -6.279  0.00  0.00     0.187 HD
HETATM   14  N   ZIN N   1     -19.893 -35.757  -8.188  0.00  0.00    -0.185 N 
HETATM   15  N   ZIN N   1     -19.282 -34.406  -6.519  0.00  0.00    -0.131 N 
HETATM   16  C   ZIN N   1     -19.367 -34.606  -8.662  0.00  0.00     0.215 A 
ATOM     17  HN  ZIN N   1     -20.255 -36.553  -8.711  1.00  0.00     0.185 HD
HETATM   18  N   ZIN N   1     -19.002 -33.795  -7.655  0.00  0.00    -0.281 N 
HETATM   19  H   ZIN N   1     -18.574 -32.846  -7.729  0.00  0.00     0.188 HD
ATOM     20  HN  ZIN N   1     -19.122 -34.047  -5.578  1.00  0.00     0.205 HD
ENDBRANCH   8   9
BRANCH   1  21
HETATM   21  C   ZIN N   1     -18.434 -37.733  -2.282  0.00  0.00     0.162 C 
BRANCH  21  22
HETATM   22  O   ZIN N   1     -18.105 -36.578  -1.677  0.00  0.00    -0.774 OA
HETATM   23  H   ZIN N   1     -18.437 -36.050  -0.978  0.00  0.00     0.167 HD
ENDBRANCH  21  22
BRANCH  21  24
HETATM   24  O   ZIN N   1     -17.472 -38.660  -2.453  0.00  0.00    -0.774 OA
HETATM   25  H   ZIN N   1     -17.279 -38.979  -3.313  0.00  0.00     0.167 HD
ENDBRANCH  21  24
ENDBRANCH   1  21
TORSDOF 4
ENDMDL
MODEL 7
REMARK VINA RESULT:      -8.5      1.901      5.780
REMARK  4 active torsions:
REMARK  status: ('A' for Active; 'I' for Inactive)
REMARK    1  A    between atoms: O_1  and  C_2 
REMARK    2  A    between atoms: C_2  and  O_3 
REMARK    3  A    between atoms: C_2  and  C_4 
REMARK    4  A    between atoms: C_11  and  C_12 
REMARK       I    between atoms: C_12  and  N_14 
REMARK       I    between atoms: N_14  and  C_15 
ROOT
HETATM    1  C   ZIN N   1     -20.584 -38.634  -3.047  0.00  0.00     0.136 A 
HETATM    2  N   ZIN N   1     -21.326 -39.321  -2.134  0.00  0.00    -0.357 N 
ATOM      3  HN  ZIN N   1     -21.398 -40.334  -2.223  1.00  0.00     0.165 HD
HETATM    4  C   ZIN N   1     -21.970 -38.710  -1.112  0.00  0.00     0.105 A 
HETATM    5  C   ZIN N   1     -21.883 -37.333  -0.977  0.00  0.00     0.105 A 
HETATM    6  N   ZIN N   1     -21.177 -36.616  -1.887  0.00  0.00    -0.358 N 
ATOM      7  HN  ZIN N   1     -21.133 -35.601  -1.786  1.00  0.00     0.165 HD
HETATM    8  C   ZIN N   1     -20.525 -37.202  -2.933  0.00  0.00     0.135 A 
ENDROOT
BRANCH   8   9
HETATM    9  C   ZIN N   1     -19.856 -36.296  -3.928  0.00  0.00     0.289 C 
HETATM   10  O   ZIN N   1     -20.511 -35.466  -4.530  0.00  0.00    -0.265 OA
HETATM   11  N   ZIN N   1     -18.503 -36.351  -4.124  0.00  0.00    -0.153 N 
HETATM   12  C   ZIN N   1     -17.833 -35.501  -5.058  0.00  0.00     0.700 A 
HETATM   13  H   ZIN N   1     -17.933 -37.026  -3.593  0.00  0.00     0.187 HD
HETATM   14  N   ZIN N   1     -16.499 -35.516  -5.257  0.00  0.00    -0.185 N 
HETATM   15  N   ZIN N   1     -18.448 -34.606  -5.854  0.00  0.00    -0.131 N 
HETATM   16  C   ZIN N   1     -16.325 -34.580  -6.215  0.00  0.00     0.215 A 
ATOM     17  HN  ZIN N   1     -15.795 -36.092  -4.796  1.00  0.00     0.185 HD
HETATM   18  N   ZIN N   1     -17.500 -34.036  -6.574  0.00  0.00    -0.281 N 
HETATM   19  H   ZIN N   1     -17.663 -33.296  -7.291  0.00  0.00     0.188 HD
ATOM     20  HN  ZIN N   1     -19.447 -34.407  -5.893  1.00  0.00     0.205 HD
ENDBRANCH   8   9
BRANCH   1  21
HETATM   21  C   ZIN N   1     -19.873 -39.461  -4.062  0.00  0.00     0.162 C 
BRANCH  21  22
HETATM   22  O   ZIN N   1     -18.544 -39.661  -4.024  0.00  0.00    -0.774 OA
HETATM   23  H   ZIN N   1     -17.932 -40.276  -4.377  0.00  0.00     0.167 HD
ENDBRANCH  21  22
BRANCH  21  24
HETATM   24  O   ZIN N   1     -20.597 -40.153  -4.963  0.00  0.00    -0.774 OA
HETATM   25  H   ZIN N   1     -20.173 -40.540  -5.704  0.00  0.00     0.167 HD
ENDBRANCH  21  24
ENDBRANCH   1  21
TORSDOF 4
ENDMDL
MODEL 8
REMARK VINA RESULT:      -8.2      3.355      6.464
REMARK  4 active torsions:
REMARK  status: ('A' for Active; 'I' for Inactive)
REMARK    1  A    between atoms: O_1  and  C_2 
REMARK    2  A    between atoms: C_2  and  O_3 
REMARK    3  A    between atoms: C_2  and  C_4 
REMARK    4  A    between atoms: C_11  and  C_12 
REMARK       I    between atoms: C_12  and  N_14 
REMARK       I    between atoms: N_14  and  C_15 
ROOT
HETATM    1  C   ZIN N   1     -21.007 -41.667  -2.897  0.00  0.00     0.136 A 
HETATM    2  N   ZIN N   1     -21.392 -42.959  -2.700  0.00  0.00    -0.357 N 
ATOM      3  HN  ZIN N   1     -20.717 -43.704  -2.874  1.00  0.00     0.165 HD
HETATM    4  C   ZIN N   1     -22.635 -43.292  -2.281  0.00  0.00     0.105 A 
HETATM    5  C   ZIN N   1     -23.564 -42.292  -2.040  0.00  0.00     0.105 A 
HETATM    6  N   ZIN N   1     -23.223 -40.997  -2.256  0.00  0.00    -0.358 N 
ATOM      7  HN  ZIN N   1     -23.920 -40.270  -2.090  1.00  0.00     0.165 HD
HETATM    8  C   ZIN N   1     -21.981 -40.630  -2.688  0.00  0.00     0.135 A 
ENDROOT
BRANCH   8   9
HETATM    9  C   ZIN N   1     -21.750 -39.175  -2.982  0.00  0.00     0.289 C 
HETATM   10  O   ZIN N   1     -22.132 -38.329  -2.196  0.00  0.00    -0.265 OA
HETATM   11  N   ZIN N   1     -21.060 -38.788  -4.099  0.00  0.00    -0.153 N 
HETATM   12  C   ZIN N   1     -20.818 -37.413  -4.407  0.00  0.00     0.700 A 
HETATM   13  H   ZIN N   1     -20.701 -39.498  -4.753  0.00  0.00     0.187 HD
HETATM   14  N   ZIN N   1     -20.121 -37.002  -5.486  0.00  0.00    -0.185 N 
HETATM   15  N   ZIN N   1     -21.263 -36.376  -3.674  0.00  0.00    -0.131 N 
HETATM   16  C   ZIN N   1     -20.161 -35.656  -5.378  0.00  0.00     0.215 A 
ATOM     17  HN  ZIN N   1     -19.676 -37.568  -6.207  1.00  0.00     0.185 HD
HETATM   18  N   ZIN N   1     -20.851 -35.283  -4.287  0.00  0.00    -0.281 N 
HETATM   19  H   ZIN N   1     -21.042 -34.310  -3.960  0.00  0.00     0.188 HD
ATOM     20  HN  ZIN N   1     -21.812 -36.424  -2.815  1.00  0.00     0.205 HD
ENDBRANCH   8   9
BRANCH   1  21
HETATM   21  C   ZIN N   1     -19.582 -41.465  -3.283  0.00  0.00     0.162 C 
BRANCH  21  22
HETATM   22  O   ZIN N   1     -19.210 -41.194  -4.547  0.00  0.00    -0.774 OA
HETATM   23  H   ZIN N   1     -18.909 -40.450  -5.029  0.00  0.00     0.167 HD
ENDBRANCH  21  22
BRANCH  21  24
HETATM   24  O   ZIN N   1     -18.646 -41.406  -2.317  0.00  0.00    -0.774 OA
HETATM   25  H   ZIN N   1     -17.748 -41.262  -2.544  0.00  0.00     0.167 HD
ENDBRANCH  21  24
ENDBRANCH   1  21
TORSDOF 4
ENDMDL
MODEL 9
REMARK VINA RESULT:      -8.0      3.350      5.973
REMARK  4 active torsions:
REMARK  status: ('A' for Active; 'I' for Inactive)
REMARK    1  A    between atoms: O_1  and  C_2 
REMARK    2  A    between atoms: C_2  and  O_3 
REMARK    3  A    between atoms: C_2  and  C_4 
REMARK    4  A    between atoms: C_11  and  C_12 
REMARK       I    between atoms: C_12  and  N_14 
REMARK       I    between atoms: N_14  and  C_15 
ROOT
HETATM    1  C   ZIN N   1     -21.674 -38.556  -2.777  0.00  0.00     0.136 A 
HETATM    2  N   ZIN N   1     -22.929 -38.605  -2.249  0.00  0.00    -0.357 N 
ATOM      3  HN  ZIN N   1     -23.616 -37.915  -2.552  1.00  0.00     0.165 HD
HETATM    4  C   ZIN N   1     -23.299 -39.535  -1.338  0.00  0.00     0.105 A 
HETATM    5  C   ZIN N   1     -22.377 -40.480  -0.916  0.00  0.00     0.105 A 
HETATM    6  N   ZIN N   1     -21.109 -40.440  -1.399  0.00  0.00    -0.358 N 
ATOM      7  HN  ZIN N   1     -20.435 -41.131  -1.070  1.00  0.00     0.165 HD
HETATM    8  C   ZIN N   1     -20.704 -39.508  -2.311  0.00  0.00     0.135 A 
ENDROOT
BRANCH   8   9
HETATM    9  C   ZIN N   1     -19.253 -39.505  -2.701  0.00  0.00     0.289 C 
HETATM   10  O   ZIN N   1     -18.473 -38.767  -2.131  0.00  0.00    -0.265 OA
HETATM   11  N   ZIN N   1     -18.783 -40.369  -3.653  0.00  0.00    -0.153 N 
HETATM   12  C   ZIN N   1     -17.409 -40.398  -4.044  0.00  0.00     0.700 A 
HETATM   13  H   ZIN N   1     -19.429 -41.024  -4.116  0.00  0.00     0.187 HD
HETATM   14  N   ZIN N   1     -16.911 -41.253  -4.961  0.00  0.00    -0.185 N 
HETATM   15  N   ZIN N   1     -16.459 -39.574  -3.562  0.00  0.00    -0.131 N 
HETATM   16  C   ZIN N   1     -15.606 -40.912  -5.016  0.00  0.00     0.215 A 
ATOM     17  HN  ZIN N   1     -17.402 -41.978  -5.484  1.00  0.00     0.185 HD
HETATM   18  N   ZIN N   1     -15.337 -39.900  -4.175  0.00  0.00    -0.281 N 
HETATM   19  H   ZIN N   1     -14.416 -39.435  -4.015  0.00  0.00     0.188 HD
ATOM     20  HN  ZIN N   1     -16.583 -38.841  -2.862  1.00  0.00     0.205 HD
ENDBRANCH   8   9
BRANCH   1  21
HETATM   21  C   ZIN N   1     -21.451 -37.521  -3.826  0.00  0.00     0.162 C 
BRANCH  21  22
HETATM   22  O   ZIN N   1     -21.401 -36.207  -3.542  0.00  0.00    -0.774 OA
HETATM   23  H   ZIN N   1     -21.097 -35.426  -3.960  0.00  0.00     0.167 HD
ENDBRANCH  21  22
BRANCH  21  24
HETATM   24  O   ZIN N   1     -21.145 -37.914  -5.077  0.00  0.00    -0.774 OA
HETATM   25  H   ZIN N   1     -20.762 -38.758  -5.221  0.00  0.00     0.167 HD
ENDBRANCH  21  24
ENDBRANCH   1  21
TORSDOF 4
ENDMDL
