C:\Users\siddh\.mgltools\PyRx\Ligands\ZINC000952981663_uff_E=437.94.pdbqt
 OpenBabel04182118313D

 21 22  0  0  1  0  0  0  0  0999 V2000
   -0.9830   -4.3050   -0.7520 C   0  0  0  0  0  2  0  0  0  0  0  0
   -0.9420   -2.7980   -0.8980 C   0  0  0  0  0  0  0  0  0  0  0  0
   -1.4740   -1.9770    0.0640 N   0  0  0  0  0  0  0  0  0  0  0  0
   -1.4380   -0.5240   -0.0090 C   0  0  1  0  0  3  0  0  0  0  0  0
   -2.1300   -2.4670    1.2610 C   0  0  0  0  0  2  0  0  0  0  0  0
   -2.1890   -0.1410    1.2280 C   0  0  0  0  0  3  0  0  0  0  0  0
   -2.5470   -1.2030    1.9280 C   0  0  0  0  0  3  0  0  0  0  0  0
   -0.4230   -2.3130   -1.8940 O   0  0  0  0  0  0  0  0  0  0  0  0
    0.0160    0.0260    0.0210 C   0  0  0  0  0  3  0  0  0  0  0  0
    0.0210    1.5600   -0.0040 C   0  0  0  0  0  1  0  0  0  0  0  0
    0.7960   -0.4910    1.2450 C   0  0  0  0  0  1  0  0  0  0  0  0
   -0.3380   -4.9700   -1.8860 N   0  0  0  0  0  0  0  0  0  0  0  0
    0.9420   -5.3480   -2.0270 C   0  0  1  0  0  3  0  0  0  0  0  0
    1.1280   -5.9260   -3.2240 N   0  0  0  0  0  0  0  0  0  0  0  0
    1.8600   -5.1770   -1.1480 N   0  0  0  0  0  0  0  0  0  0  0  0
   -0.0620   -5.8960   -3.8140 N   0  0  0  0  0  2  0  0  0  0  0  0
    1.9970   -6.3070   -3.5990 H   0  0  0  0  0  0  0  0  0  0  0  0
   -0.9460   -5.3180   -3.0070 N   0  0  0  0  0  0  0  0  0  0  0  0
   -1.8980   -5.1730   -3.2110 H   0  0  0  0  0  0  0  0  0  0  0  0
    2.8250   -5.4920   -1.3290 H   0  0  0  0  0  0  0  0  0  0  0  0
    1.6340   -4.7260   -0.2620 H   0  0  0  0  0  0  0  0  0  0  0  0
  2  1  1  0  0  0  0
  2  3  1  0  0  0  0
  3  5  1  0  0  0  0
  4  9  1  1  0  0  0
  4  3  1  0  0  0  0
  4  6  1  0  0  0  0
  5  7  1  0  0  0  0
  6  7  2  0  0  0  0
  8  2  2  0  0  0  0
  9 11  1  0  0  0  0
 10  9  1  0  0  0  0
 12  1  1  0  0  0  0
 13 12  1  0  0  0  0
 13 15  1  6  0  0  0
 14 13  1  0  0  0  0
 15 21  1  0  0  0  0
 16 14  1  0  0  0  0
 16 18  1  0  0  0  0
 17 14  1  0  0  0  0
 18 12  1  0  0  0  0
 19 18  1  0  0  0  0
 20 15  1  0  0  0  0
M  END
>  <REMARK>
  3 active torsions:
  status: ('A' for Active; 'I' for Inactive)
    1  A    between atoms: C_2  and  C_4 
       I    between atoms: N_8  and  C_9 
    2  A    between atoms: C_9  and  C_11 
    3  A    between atoms: C_11  and  N_12 
       I    between atoms: C_17  and  N_18 

>  <TORSDO>
F 3

$$$$
C:\Users\siddh\.mgltools\PyRx\Ligands\ZINC000888099288_uff_E=221.98.pdbqt
 OpenBabel04182118313D

 18 18  0  0  1  0  0  0  0  0999 V2000
    0.4940   -3.3260    1.2850 C   0  0  0  0  0  0  0  0  0  0  0  0
    1.4320   -3.8430    0.6980 O   0  0  0  0  0  0  0  0  0  0  0  0
    0.1460   -3.7360    2.5380 N   0  0  0  0  0  0  0  0  0  0  0  0
   -0.6890   -3.3160    2.9720 H   0  0  0  0  0  0  0  0  0  0  0  0
   -0.3240   -2.2610    0.5980 C   0  0  2  0  0  3  0  0  0  0  0  0
    0.0580   -2.0290   -0.7100 O   0  0  0  0  0  0  0  0  0  0  0  0
    0.1590   -0.7540   -0.9820 N   0  0  0  0  0  0  0  0  0  0  0  0
   -0.0050   -0.0380    0.0510 C   0  0  2  0  0  3  0  0  0  0  0  0
    0.3470   -0.3810   -1.9130 H   0  0  0  0  0  0  0  0  0  0  0  0
    0.0700    1.4550    0.0190 C   0  0  0  0  0  1  0  0  0  0  0  0
   -0.1980   -0.8680    1.2730 C   0  0  0  0  0  2  0  0  0  0  0  0
    0.8740   -4.7920    3.2380 C   0  0  1  0  0  3  0  0  0  0  0  0
    2.2100   -4.2480    3.7620 C   0  0  0  0  0  1  0  0  0  0  0  0
    0.0740   -5.3690    4.3870 C   0  0  0  0  0  3  0  0  0  0  0  0
   -1.1590   -4.9120    4.6820 O   0  0  0  0  0  0  0  0  0  0  0  0
   -1.6380   -5.2830    5.3970 H   0  0  0  0  0  0  0  0  0  0  0  0
    0.5850   -6.3880    5.1060 O   0  0  0  0  0  0  0  0  0  0  0  0
    1.4410   -6.7160    4.9110 H   0  0  0  0  0  0  0  0  0  0  0  0
  1  3  1  0  0  0  0
  2  1  2  0  0  0  0
  3  4  1  0  0  0  0
  3 12  1  0  0  0  0
  5 11  1  0  0  0  0
  5  1  1  1  0  0  0
  6  5  1  0  0  0  0
  7  6  1  0  0  0  0
  7  8  1  0  0  0  0
  8 10  1  1  0  0  0
  8 11  1  0  0  0  0
  9  7  1  0  0  0  0
 12 13  1  1  0  0  0
 12 14  1  0  0  0  0
 14 15  1  0  0  0  0
 14 17  1  0  0  0  0
 15 16  1  0  0  0  0
 18 17  1  0  0  0  0
M  END
>  <REMARK>
  5 active torsions:
  status: ('A' for Active; 'I' for Inactive)
    1  A    between atoms: C_6  and  C_7 
       I    between atoms: C_7  and  N_9 
    2  A    between atoms: N_9  and  C_10 
    3  A    between atoms: C_10  and  C_12 
    4  A    between atoms: C_12  and  O_13 
    5  A    between atoms: C_12  and  O_14 

>  <TORSDO>
F 5

$$$$
C:\Users\siddh\.mgltools\PyRx\Ligands\ZINC000725345437_uff_E=718.99.pdbqt
 OpenBabel04182118313D

 21 22  0  0  1  0  0  0  0  0999 V2000
   -2.7680   -3.3160    1.3520 C   0  0  0  0  0  0  0  0  0  0  0  0
   -3.9570   -4.0570    1.3960 C   0  0  0  0  0  3  0  0  0  0  0  0
   -4.4010   -4.5380    2.5890 N   0  0  0  0  0  0  0  0  0  0  0  0
   -5.2710   -5.0690    2.6200 H   0  0  0  0  0  0  0  0  0  0  0  0
   -3.7070   -4.3250    3.7390 C   0  0  0  0  0  0  0  0  0  0  0  0
   -2.5180   -3.5850    3.6930 C   0  0  0  0  0  3  0  0  0  0  0  0
   -2.0840   -3.0910    2.5050 N   0  0  0  0  0  0  0  0  0  0  0  0
   -1.2270   -2.5380    2.4770 H   0  0  0  0  0  0  0  0  0  0  0  0
   -2.2850   -2.7840    0.1210 N   0  0  0  0  0  0  0  0  0  0  0  0
   -1.0310   -2.1400   -0.0430 C   0  0  1  0  0  3  0  0  0  0  0  0
   -0.9570   -2.7950   -1.4540 C   0  0  0  0  0  2  0  0  0  0  0  0
   -2.3310   -3.4620   -1.1260 C   0  0  0  0  0  2  0  0  0  0  0  0
   -1.1570   -0.6380   -0.0500 C   0  0  0  0  0  0  0  0  0  0  0  0
   -2.2440   -0.1080    0.1460 O   0  0  0  0  0  0  0  0  0  0  0  0
   -0.0420    0.1160   -0.2160 O   0  0  0  0  0  0  0  0  0  0  0  0
   -0.0420    1.4930   -0.1330 C   0  0  0  0  0  1  0  0  0  0  0  0
   -4.2130   -4.8710    5.0130 C   0  0  0  0  0  3  0  0  0  0  0  0
   -5.3760   -5.5490    5.0390 O   0  0  0  0  0  0  0  0  0  0  0  0
   -5.6980   -5.8960    5.8480 H   0  0  0  0  0  0  0  0  0  0  0  0
   -3.5200   -4.6990    6.1550 O   0  0  0  0  0  0  0  0  0  0  0  0
   -2.7090   -4.2290    6.1460 H   0  0  0  0  0  0  0  0  0  0  0  0
  1  2  2  0  0  0  0
  1  7  1  0  0  0  0
  2  3  1  0  0  0  0
  3  4  1  0  0  0  0
  3  5  1  0  0  0  0
  5 17  1  0  0  0  0
  6  5  2  0  0  0  0
  7  6  1  0  0  0  0
  8  7  1  0  0  0  0
  9  1  1  0  0  0  0
 10 13  1  6  0  0  0
 10  9  1  0  0  0  0
 11 12  1  0  0  0  0
 11 10  1  0  0  0  0
 12  9  1  0  0  0  0
 13 14  2  0  0  0  0
 15 16  1  0  0  0  0
 15 13  1  0  0  0  0
 17 18  1  0  0  0  0
 17 20  1  0  0  0  0
 18 19  1  0  0  0  0
 21 20  1  0  0  0  0
M  END
>  <REMARK>
  6 active torsions:
  status: ('A' for Active; 'I' for Inactive)
    1  A    between atoms: O_2  and  C_3 
    2  A    between atoms: C_3  and  C_5 
    3  A    between atoms: N_8  and  C_9 
    4  A    between atoms: C_13  and  C_14 
    5  A    between atoms: C_14  and  O_15 
    6  A    between atoms: C_14  and  O_16 

>  <TORSDO>
F 6

$$$$
C:\Users\siddh\.mgltools\PyRx\Ligands\ZINC000725345436_uff_E=713.68.pdbqt
 OpenBabel04182118313D

 21 22  0  0  1  0  0  0  0  0999 V2000
   -2.8030   -3.2990   -1.3150 C   0  0  0  0  0  0  0  0  0  0  0  0
   -3.7580   -4.3270   -1.3320 C   0  0  0  0  0  3  0  0  0  0  0  0
   -4.2350   -4.7750   -2.5250 N   0  0  0  0  0  0  0  0  0  0  0  0
   -4.9280   -5.5240   -2.5370 H   0  0  0  0  0  0  0  0  0  0  0  0
   -3.8070   -4.2440   -3.7020 C   0  0  0  0  0  0  0  0  0  0  0  0
   -2.8710   -3.2010   -3.6810 C   0  0  0  0  0  3  0  0  0  0  0  0
   -2.3940   -2.7550   -2.4910 N   0  0  0  0  0  0  0  0  0  0  0  0
   -1.7140   -1.9950   -2.4800 H   0  0  0  0  0  0  0  0  0  0  0  0
   -2.2290   -2.8470   -0.0930 N   0  0  0  0  0  0  0  0  0  0  0  0
   -1.0560   -2.0610    0.0260 C   0  0  2  0  0  3  0  0  0  0  0  0
   -0.8560   -2.7160    1.4270 C   0  0  0  0  0  2  0  0  0  0  0  0
   -2.1270   -3.5730    1.1210 C   0  0  0  0  0  2  0  0  0  0  0  0
   -1.3000   -0.5760    0.0580 C   0  0  0  0  0  0  0  0  0  0  0  0
   -2.4320   -0.1270   -0.0720 O   0  0  0  0  0  0  0  0  0  0  0  0
   -0.2320    0.2540    0.1760 O   0  0  0  0  0  0  0  0  0  0  0  0
   -0.3200    1.6280    0.1300 C   0  0  0  0  0  1  0  0  0  0  0  0
   -4.3170   -4.7810   -4.9780 C   0  0  0  0  0  3  0  0  0  0  0  0
   -5.2090   -5.7900   -4.9750 O   0  0  0  0  0  0  0  0  0  0  0  0
   -5.5340   -6.1310   -5.7850 H   0  0  0  0  0  0  0  0  0  0  0  0
   -3.8810   -4.2860   -6.1530 O   0  0  0  0  0  0  0  0  0  0  0  0
   -3.2600   -3.5840   -6.1640 H   0  0  0  0  0  0  0  0  0  0  0  0
  1  9  1  0  0  0  0
  2  1  2  0  0  0  0
  3  2  1  0  0  0  0
  4  3  1  0  0  0  0
  5  6  2  0  0  0  0
  5  3  1  0  0  0  0
  6  7  1  0  0  0  0
  7  8  1  0  0  0  0
  7  1  1  0  0  0  0
  9 10  1  0  0  0  0
  9 12  1  0  0  0  0
 10 13  1  1  0  0  0
 10 11  1  0  0  0  0
 12 11  1  0  0  0  0
 13 15  1  0  0  0  0
 14 13  2  0  0  0  0
 16 15  1  0  0  0  0
 17 18  1  0  0  0  0
 17  5  1  0  0  0  0
 19 18  1  0  0  0  0
 20 17  1  0  0  0  0
 21 20  1  0  0  0  0
M  END
>  <REMARK>
  6 active torsions:
  status: ('A' for Active; 'I' for Inactive)
    1  A    between atoms: O_2  and  C_3 
    2  A    between atoms: C_3  and  C_5 
    3  A    between atoms: N_8  and  C_9 
    4  A    between atoms: C_13  and  C_14 
    5  A    between atoms: C_14  and  O_15 
    6  A    between atoms: C_14  and  O_16 

>  <TORSDO>
F 6

$$$$
C:\Users\siddh\.mgltools\PyRx\Ligands\ZINC000725256565_uff_E=271.70.pdbqt
 OpenBabel04182118313D

 19 19  0  0  1  0  0  0  0  0999 V2000
    1.2910   -4.1290   -2.2060 C   0  0  2  0  0  3  0  0  0  0  0  0
    0.7670   -4.9480   -1.2720 N   0  0  0  0  0  0  0  0  0  0  0  0
    0.2760   -4.6870   -0.4160 H   0  0  0  0  0  0  0  0  0  0  0  0
    1.0370   -6.1830   -1.7230 C   0  0  0  0  0  3  0  0  0  0  0  0
    1.7150   -6.0710   -2.9140 C   0  0  0  0  0  0  0  0  0  0  0  0
    1.8580   -4.7960   -3.1880 O   0  0  0  0  0  0  0  0  0  0  0  0
    1.2420   -2.7080   -2.1440 N   0  0  0  0  0  0  0  0  0  0  0  0
    0.6510   -2.0370   -1.1100 C   0  0  0  0  0  0  0  0  0  0  0  0
    0.1340   -2.6440   -0.1850 O   0  0  0  0  0  0  0  0  0  0  0  0
    1.6730   -2.1760   -2.9140 H   0  0  0  0  0  0  0  0  0  0  0  0
    0.6260   -0.5630   -1.0930 C   0  0  0  0  0  0  0  0  0  0  0  0
    1.1360    0.0710   -2.0070 O   0  0  0  0  0  0  0  0  0  0  0  0
    0.0330    0.0810   -0.0550 O   0  0  0  0  0  0  0  0  0  0  0  0
   -0.0260    1.4550    0.0260 C   0  0  0  0  0  1  0  0  0  0  0  0
    2.1990   -7.1820   -3.7410 C   0  0  0  0  0  3  0  0  0  0  0  0
    1.9890   -8.4530   -3.3490 O   0  0  0  0  0  0  0  0  0  0  0  0
    2.2980   -9.1630   -3.8770 H   0  0  0  0  0  0  0  0  0  0  0  0
    2.8540   -6.9360   -4.8910 O   0  0  0  0  0  0  0  0  0  0  0  0
    3.0010   -6.0530   -5.1660 H   0  0  0  0  0  0  0  0  0  0  0  0
  1  7  1  1  0  0  0
  1  2  1  0  0  0  0
  2  3  1  0  0  0  0
  4  2  1  0  0  0  0
  5  4  2  0  0  0  0
  6  5  1  0  0  0  0
  6  1  1  0  0  0  0
  7  8  1  0  0  0  0
  8 11  1  0  0  0  0
  8  9  2  0  0  0  0
 10  7  1  0  0  0  0
 11 13  1  0  0  0  0
 12 11  2  0  0  0  0
 13 14  1  0  0  0  0
 15 16  1  0  0  0  0
 15  5  1  0  0  0  0
 17 16  1  0  0  0  0
 18 15  1  0  0  0  0
 19 18  1  0  0  0  0
M  END
>  <REMARK>
  6 active torsions:
  status: ('A' for Active; 'I' for Inactive)
    1  A    between atoms: O_2  and  C_3 
    2  A    between atoms: C_3  and  C_5 
       I    between atoms: C_5  and  N_7 
    3  A    between atoms: N_7  and  C_8 
    4  A    between atoms: C_12  and  C_13 
    5  A    between atoms: C_13  and  O_14 
    6  A    between atoms: C_13  and  O_15 

>  <TORSDO>
F 6

$$$$
C:\Users\siddh\.mgltools\PyRx\Ligands\ZINC000725256494_uff_E=306.13.pdbqt
 OpenBabel04182118313D

 18 18  0  0  1  0  0  0  0  0999 V2000
   -2.0700   -4.3070   -0.0010 C   0  0  1  0  0  3  0  0  0  0  0  0
   -0.8900   -4.9650   -0.0110 N   0  0  0  0  0  0  0  0  0  0  0  0
    0.0490   -4.5640   -0.0140 H   0  0  0  0  0  0  0  0  0  0  0  0
   -1.2290   -6.2630   -0.0160 C   0  0  0  0  0  3  0  0  0  0  0  0
   -2.6010   -6.3520   -0.0100 C   0  0  0  0  0  0  0  0  0  0  0  0
   -3.0940   -5.1340    0.0000 O   0  0  0  0  0  0  0  0  0  0  0  0
   -2.1910   -2.8850    0.0080 N   0  0  0  0  0  0  0  0  0  0  0  0
   -1.1000   -2.0630    0.0020 C   0  0  0  0  0  0  0  0  0  0  0  0
    0.0300   -2.5330   -0.0100 O   0  0  0  0  0  0  0  0  0  0  0  0
   -3.1360   -2.4710    0.0170 H   0  0  0  0  0  0  0  0  0  0  0  0
   -1.2630   -0.5670    0.0110 C   0  0  0  0  0  2  0  0  0  0  0  0
    0.0220    0.0230    0.0020 O   0  0  0  0  0  0  0  0  0  0  0  0
   -0.0850    1.4240    0.0110 C   0  0  0  0  0  1  0  0  0  0  0  0
   -3.3870   -7.5930   -0.0130 C   0  0  0  0  0  3  0  0  0  0  0  0
   -2.7630   -8.7870   -0.0240 O   0  0  0  0  0  0  0  0  0  0  0  0
   -3.2640   -9.5780   -0.0260 H   0  0  0  0  0  0  0  0  0  0  0  0
   -4.7320   -7.5430   -0.0070 O   0  0  0  0  0  0  0  0  0  0  0  0
   -5.1700   -6.7140    0.0010 H   0  0  0  0  0  0  0  0  0  0  0  0
  1  6  1  0  0  0  0
  1  7  1  1  0  0  0
  2  1  1  0  0  0  0
  3  2  1  0  0  0  0
  4  2  1  0  0  0  0
  4  5  2  0  0  0  0
  5  6  1  0  0  0  0
  7 10  1  0  0  0  0
  8  7  1  0  0  0  0
  8 11  1  0  0  0  0
  9  8  2  0  0  0  0
 12 11  1  0  0  0  0
 12 13  1  0  0  0  0
 14  5  1  0  0  0  0
 14 17  1  0  0  0  0
 15 14  1  0  0  0  0
 16 15  1  0  0  0  0
 17 18  1  0  0  0  0
M  END
>  <REMARK>
  6 active torsions:
  status: ('A' for Active; 'I' for Inactive)
    1  A    between atoms: O_2  and  C_3 
    2  A    between atoms: C_3  and  C_4 
       I    between atoms: C_4  and  N_6 
    3  A    between atoms: N_6  and  C_7 
    4  A    between atoms: C_11  and  C_12 
    5  A    between atoms: C_12  and  O_13 
    6  A    between atoms: C_12  and  O_14 

>  <TORSDO>
F 6

$$$$
C:\Users\siddh\.mgltools\PyRx\Ligands\ZINC000725256334_uff_E=272.47.pdbqt
 OpenBabel04182118313D

 20 20  0  0  1  0  0  0  0  0999 V2000
    2.3200   -4.2250    3.8120 C   0  0  2  0  0  3  0  0  0  0  0  0
    2.8770   -3.4730    4.7850 N   0  0  0  0  0  0  0  0  0  0  0  0
    2.8970   -2.4560    4.8550 H   0  0  0  0  0  0  0  0  0  0  0  0
    3.3980   -4.3680    5.6390 C   0  0  0  0  0  3  0  0  0  0  0  0
    3.1410   -5.6310    5.1560 C   0  0  0  0  0  0  0  0  0  0  0  0
    2.4770   -5.5130    4.0310 O   0  0  0  0  0  0  0  0  0  0  0  0
    1.6430   -3.6940    2.6780 N   0  0  0  0  0  0  0  0  0  0  0  0
    1.4960   -2.3510    2.4690 C   0  0  0  0  0  0  0  0  0  0  0  0
    1.9500   -1.5400    3.2630 O   0  0  0  0  0  0  0  0  0  0  0  0
    1.2530   -4.3600    1.9950 H   0  0  0  0  0  0  0  0  0  0  0  0
    0.7840   -1.8530    1.2750 C   0  0  0  0  0  0  0  0  0  0  0  0
    0.3210   -2.6440    0.4660 O   0  0  0  0  0  0  0  0  0  0  0  0
    0.6490   -0.5140    1.0830 O   0  0  0  0  0  0  0  0  0  0  0  0
   -0.0070    0.0070   -0.0130 C   0  0  0  0  0  2  0  0  0  0  0  0
   -0.0060    1.5270    0.0320 C   0  0  0  0  0  1  0  0  0  0  0  0
    3.5380   -6.8960    5.7850 C   0  0  0  0  0  3  0  0  0  0  0  0
    4.2210   -6.8850    6.9460 O   0  0  0  0  0  0  0  0  0  0  0  0
    4.4750   -7.6930    7.3470 H   0  0  0  0  0  0  0  0  0  0  0  0
    3.2240   -8.0690    5.2050 O   0  0  0  0  0  0  0  0  0  0  0  0
    2.7490   -8.0800    4.3970 H   0  0  0  0  0  0  0  0  0  0  0  0
  1  7  1  6  0  0  0
  1  6  1  0  0  0  0
  1  2  1  0  0  0  0
  2  3  1  0  0  0  0
  2  4  1  0  0  0  0
  5  4  2  0  0  0  0
  5 16  1  0  0  0  0
  6  5  1  0  0  0  0
  8  7  1  0  0  0  0
  8  9  2  0  0  0  0
 10  7  1  0  0  0  0
 11  8  1  0  0  0  0
 12 11  2  0  0  0  0
 13 11  1  0  0  0  0
 14 15  1  0  0  0  0
 14 13  1  0  0  0  0
 16 17  1  0  0  0  0
 17 18  1  0  0  0  0
 19 16  1  0  0  0  0
 20 19  1  0  0  0  0
M  END
>  <REMARK>
  7 active torsions:
  status: ('A' for Active; 'I' for Inactive)
    1  A    between atoms: C_2  and  O_3 
    2  A    between atoms: O_3  and  C_4 
    3  A    between atoms: C_4  and  C_6 
       I    between atoms: C_6  and  N_8 
    4  A    between atoms: N_8  and  C_9 
    5  A    between atoms: C_13  and  C_14 
    6  A    between atoms: C_14  and  O_15 
    7  A    between atoms: C_14  and  O_16 

>  <TORSDO>
F 7

$$$$
C:\Users\siddh\.mgltools\PyRx\Ligands\ZINC000685939372_uff_E=746.04.pdbqt
 OpenBabel04182118313D

 18 19  0  0  0  0  0  0  0  0999 V2000
   -0.1100    1.3110   -0.1190 C   0  0  0  0  0  1  0  0  0  0  0  0
   -0.0290   -0.0320    0.4690 N   0  0  0  0  0  0  0  0  0  0  0  0
   -1.2290   -0.8620    0.1750 C   0  0  0  0  0  2  0  0  0  0  0  0
   -1.2940   -1.4480   -1.2680 C   0  0  0  0  0  2  0  0  0  0  0  0
   -0.1830   -2.3650   -1.5440 N   0  0  0  0  0  0  0  0  0  0  0  0
   -0.2440   -3.4480   -2.3030 N   0  0  0  0  0  0  0  0  0  0  0  0
   -1.0700   -3.7990   -2.7880 H   0  0  0  0  0  0  0  0  0  0  0  0
    0.9900   -4.0020   -2.3190 C   0  0  0  0  0  0  0  0  0  0  0  0
    1.8470   -3.2420   -1.5400 C   0  0  0  0  0  3  0  0  0  0  0  0
    1.0580   -2.2180   -1.0750 C   0  0  0  0  0  0  0  0  0  0  0  0
    1.4640   -0.8910    0.0060 S   0  0  0  0  0  0  0  0  0  0  0  0
    2.4410    0.1460   -0.5730 O   0  0  0  0  0  0  0  0  0  0  0  0
    2.1000   -1.3260    1.3350 O   0  0  0  0  0  0  0  0  0  0  0  0
    1.3420   -5.2230   -3.0570 C   0  0  0  0  0  0  0  0  0  0  0  0
    0.4090   -5.8680   -3.7820 O   0  0  0  0  0  0  0  0  0  0  0  0
    0.6350   -6.6460   -4.2510 H   0  0  0  0  0  0  0  0  0  0  0  0
    2.6010   -5.7000   -3.0150 O   0  0  0  0  0  0  0  0  0  0  0  0
    3.2550   -5.2550   -2.5120 H   0  0  0  0  0  0  0  0  0  0  0  0
  1  2  1  0  0  0  0
  3  2  1  0  0  0  0
  4  3  1  0  0  0  0
  5  4  1  0  0  0  0
  5 10  1  0  0  0  0
  6  5  1  0  0  0  0
  7  6  1  0  0  0  0
  8  6  1  0  0  0  0
  8  9  1  0  0  0  0
  9 10  2  0  0  0  0
 10 11  1  0  0  0  0
 11  2  1  0  0  0  0
 11 13  2  0  0  0  0
 12 11  2  0  0  0  0
 14 17  1  0  0  0  0
 14  8  2  0  0  0  0
 15 14  1  0  0  0  0
 16 15  1  0  0  0  0
 17 18  1  0  0  0  0
M  END
>  <REMARK>
  3 active torsions:
  status: ('A' for Active; 'I' for Inactive)
    1  A    between atoms: C_8  and  C_9 
    2  A    between atoms: C_9  and  O_10 
    3  A    between atoms: C_9  and  O_11 

>  <TORSDO>
F 3

$$$$
C:\Users\siddh\.mgltools\PyRx\Ligands\ZINC000685939371_uff_E=750.57.pdbqt
 OpenBabel04182118313D

 18 19  0  0  0  0  0  0  0  0999 V2000
    0.1150    1.3150   -0.1020 C   0  0  0  0  0  1  0  0  0  0  0  0
   -0.4610   -0.0340   -0.0650 N   0  0  0  0  0  0  0  0  0  0  0  0
   -0.1380   -0.8430   -1.2700 C   0  0  0  0  0  2  0  0  0  0  0  0
    1.3030   -1.4280   -1.3180 C   0  0  0  0  0  2  0  0  0  0  0  0
    1.5680   -2.3530   -0.2120 N   0  0  0  0  0  0  0  0  0  0  0  0
    2.3540   -3.4180   -0.2750 N   0  0  0  0  0  0  0  0  0  0  0  0
    2.8510   -3.7500   -1.1020 H   0  0  0  0  0  0  0  0  0  0  0  0
    2.3790   -3.9890    0.9510 C   0  0  0  0  0  2  0  0  0  0  0  0
    1.5800   -3.2470    1.8070 C   0  0  0  0  0  0  0  0  0  0  0  0
    1.0870   -2.2230    1.0270 C   0  0  0  0  0  0  0  0  0  0  0  0
   -0.0230   -0.9090    1.4250 S   0  0  0  0  0  0  0  0  0  0  0  0
    0.5250    0.1240    2.4240 O   0  0  0  0  0  0  0  0  0  0  0  0
   -1.3620   -1.3600    2.0260 O   0  0  0  0  0  0  0  0  0  0  0  0
    1.3320   -3.5140    3.2350 C   0  0  0  0  0  3  0  0  0  0  0  0
    1.9110   -4.5720    3.8330 O   0  0  0  0  0  0  0  0  0  0  0  0
    1.7530   -4.7410    4.7410 H   0  0  0  0  0  0  0  0  0  0  0  0
    0.5370   -2.6990    3.9540 O   0  0  0  0  0  0  0  0  0  0  0  0
    0.1300   -1.9610    3.5450 H   0  0  0  0  0  0  0  0  0  0  0  0
  1  2  1  0  0  0  0
  2 11  1  0  0  0  0
  3  2  1  0  0  0  0
  4  3  1  0  0  0  0
  4  5  1  0  0  0  0
  5 10  1  0  0  0  0
  6  5  1  0  0  0  0
  6  8  1  0  0  0  0
  7  6  1  0  0  0  0
  8  9  1  0  0  0  0
  9 14  1  0  0  0  0
 10 11  1  0  0  0  0
 10  9  2  0  0  0  0
 11 13  2  0  0  0  0
 11 12  2  0  0  0  0
 14 15  1  0  0  0  0
 14 17  1  0  0  0  0
 15 16  1  0  0  0  0
 18 17  1  0  0  0  0
M  END
>  <REMARK>
  3 active torsions:
  status: ('A' for Active; 'I' for Inactive)
    1  A    between atoms: C_9  and  C_10 
    2  A    between atoms: C_10  and  O_11 
    3  A    between atoms: C_10  and  O_12 

>  <TORSDO>
F 3

$$$$
C:\Users\siddh\.mgltools\PyRx\Ligands\ZINC000644283683_uff_E=305.00.pdbqt
 OpenBabel04182118313D

 19 19  0  0  1  0  0  0  0  0999 V2000
   -0.9760   -1.8620   -2.9060 C   0  0  0  0  0  0  0  0  0  0  0  0
   -0.7650   -2.7760   -2.1180 O   0  0  0  0  0  0  0  0  0  0  0  0
   -0.5150   -1.9390   -4.1820 N   0  0  0  0  0  0  0  0  0  0  0  0
   -0.7030   -1.1520   -4.8200 H   0  0  0  0  0  0  0  0  0  0  0  0
   -1.7780   -0.6610   -2.4700 C   0  0  0  0  0  2  0  0  0  0  0  0
   -2.1750   -0.7820   -1.0660 N   0  0  0  0  0  0  0  0  0  0  0  0
   -1.4270   -0.5490    0.0350 C   0  0  2  0  0  3  0  0  0  0  0  0
   -2.1160   -0.7920    1.1700 N   0  0  0  0  0  0  0  0  0  0  0  0
   -3.3360   -1.1980    0.7590 C   0  0  0  0  0  3  0  0  0  0  0  0
   -1.7870   -0.6910    2.1300 H   0  0  0  0  0  0  0  0  0  0  0  0
   -3.3740   -1.1860   -0.6180 C   0  0  0  0  0  3  0  0  0  0  0  0
   -0.0200   -0.0230    0.0240 C   0  0  0  0  0  2  0  0  0  0  0  0
   -0.0220    1.5040    0.0170 C   0  0  0  0  0  1  0  0  0  0  0  0
    0.2160   -3.1070   -4.6470 C   0  0  0  0  0  2  0  0  0  0  0  0
    0.6520   -2.9950   -6.0850 C   0  0  0  0  0  3  0  0  0  0  0  0
    0.3760   -1.8990   -6.8190 O   0  0  0  0  0  0  0  0  0  0  0  0
    0.6570   -1.8510   -7.7120 H   0  0  0  0  0  0  0  0  0  0  0  0
    1.3340   -4.0110   -6.6470 O   0  0  0  0  0  0  0  0  0  0  0  0
    1.5300   -4.7780   -6.1450 H   0  0  0  0  0  0  0  0  0  0  0  0
  1  5  1  0  0  0  0
  1  2  2  0  0  0  0
  3  1  1  0  0  0  0
  4  3  1  0  0  0  0
  5  6  1  0  0  0  0
  6 11  1  0  0  0  0
  6  7  1  0  0  0  0
  7 12  1  1  0  0  0
  7  8  1  0  0  0  0
  8 10  1  0  0  0  0
  9  8  1  0  0  0  0
 11  9  2  0  0  0  0
 13 12  1  0  0  0  0
 14  3  1  0  0  0  0
 15 14  1  0  0  0  0
 16 15  1  0  0  0  0
 17 16  1  0  0  0  0
 18 19  1  0  0  0  0
 18 15  1  0  0  0  0
M  END
>  <REMARK>
  7 active torsions:
  status: ('A' for Active; 'I' for Inactive)
    1  A    between atoms: C_2  and  C_3 
    2  A    between atoms: N_8  and  C_9 
    3  A    between atoms: C_9  and  C_10 
       I    between atoms: C_10  and  N_12 
    4  A    between atoms: N_12  and  C_13 
    5  A    between atoms: C_13  and  C_14 
    6  A    between atoms: C_14  and  O_15 
    7  A    between atoms: C_14  and  O_16 

>  <TORSDO>
F 7

$$$$
C:\Users\siddh\.mgltools\PyRx\Ligands\ZINC000585134635_uff_E=240.71.pdbqt
 OpenBabel04182118313D

 19 19  0  0  1  0  0  0  0  0999 V2000
   -1.5870   -2.2550    0.1390 C   0  0  0  0  0  0  0  0  0  0  0  0
   -0.7010   -3.0850    0.0080 O   0  0  0  0  0  0  0  0  0  0  0  0
   -2.8510   -2.6500    0.4590 N   0  0  0  0  0  0  0  0  0  0  0  0
   -3.5690   -1.9300    0.6220 H   0  0  0  0  0  0  0  0  0  0  0  0
   -1.3050   -0.7660   -0.0550 C   0  0  1  0  0  3  0  0  0  0  0  0
    0.1990   -0.3630   -0.1770 C   0  0  0  0  0  3  0  0  0  0  0  0
    0.9660   -0.6800    1.1160 C   0  0  0  0  0  1  0  0  0  0  0  0
    0.9170   -0.9610   -1.4010 C   0  0  0  0  0  1  0  0  0  0  0  0
   -2.0820   -0.2410   -1.2480 C   0  0  0  0  0  3  0  0  0  0  0  0
   -2.7780   -1.0750   -2.0490 O   0  0  0  0  0  0  0  0  0  0  0  0
   -3.2520   -0.7350   -2.7810 H   0  0  0  0  0  0  0  0  0  0  0  0
   -2.0760    1.0780   -1.5230 O   0  0  0  0  0  0  0  0  0  0  0  0
   -1.5970    1.6680   -0.9750 H   0  0  0  0  0  0  0  0  0  0  0  0
   -3.2320   -4.0500    0.5480 C   0  0  1  0  0  3  0  0  0  0  0  0
   -4.6790   -4.2500    1.0220 C   0  0  0  0  0  2  0  0  0  0  0  0
   -4.9910   -5.4910    0.2780 C   0  0  0  0  0  0  0  0  0  0  0  0
   -4.1120   -5.7680   -0.6930 O   0  0  0  0  0  0  0  0  0  0  0  0
   -6.0290   -6.1180    0.4170 O   0  0  0  0  0  0  0  0  0  0  0  0
   -3.1690   -4.7750   -0.8100 C   0  0  0  0  0  2  0  0  0  0  0  0
  1  3  1  0  0  0  0
  2  1  2  0  0  0  0
  3  4  1  0  0  0  0
  5  9  1  6  0  0  0
  5  1  1  0  0  0  0
  6  5  1  0  0  0  0
  6  7  1  0  0  0  0
  8  6  1  0  0  0  0
 10  9  1  0  0  0  0
 11 10  1  0  0  0  0
 12  9  1  0  0  0  0
 12 13  1  0  0  0  0
 14  3  1  6  0  0  0
 14 15  1  0  0  0  0
 16 18  2  0  0  0  0
 16 15  1  0  0  0  0
 17 16  1  0  0  0  0
 19 17  1  0  0  0  0
 19 14  1  0  0  0  0
M  END
>  <REMARK>
  6 active torsions:
  status: ('A' for Active; 'I' for Inactive)
    1  A    between atoms: C_2  and  C_4 
    2  A    between atoms: C_4  and  C_5 
    3  A    between atoms: C_4  and  C_8 
    4  A    between atoms: C_5  and  O_6 
    5  A    between atoms: C_5  and  O_7 
       I    between atoms: C_8  and  N_10 
    6  A    between atoms: N_10  and  C_11 

>  <TORSDO>
F 6

$$$$
C:\Users\siddh\.mgltools\PyRx\Ligands\ZINC000585092251_uff_E=516.05.pdbqt
 OpenBabel04182118313D

 21 22  0  0  1  0  0  0  0  0999 V2000
   -4.8130    0.2570    0.0230 N   0  0  0  0  0  0  0  0  0  0  0  0
   -4.8380    1.2760    0.0180 H   0  0  0  0  0  0  0  0  0  0  0  0
   -3.6600   -0.3180    0.0060 C   0  0  1  0  0  3  0  0  0  0  0  0
   -2.4930    0.3610    0.0030 N   0  0  0  0  0  0  0  0  0  0  0  0
   -1.3990   -0.5000    0.0030 C   0  0  2  0  0  3  0  0  0  0  0  0
   -2.4220    1.3780   -0.0000 H   0  0  0  0  0  0  0  0  0  0  0  0
   -1.6670   -1.8470    0.0080 N   0  0  0  0  0  0  0  0  0  0  0  0
   -3.3060   -1.9140    0.0130 S   0  0  0  0  0  0  0  0  0  0  0  0
   -1.0270   -2.5950    0.0080 H   0  0  0  0  0  0  0  0  0  0  0  0
    0.0100    0.0140    0.0010 C   0  0  0  0  0  2  0  0  0  0  0  0
    0.0530    1.5420    0.0080 C   0  0  0  0  0  1  0  0  0  0  0  0
   -6.0770   -0.4520    0.0470 C   0  0  0  0  0  2  0  0  0  0  0  0
   -6.8300   -0.1470    1.3470 C   0  0  2  0  0  3  0  0  0  0  0  0
   -7.0920    1.2680    1.5250 N   0  0  0  0  0  0  0  0  0  0  0  0
   -6.4540    1.6490    2.6370 C   0  0  0  0  0  0  0  0  0  0  0  0
   -7.9200    2.0960    0.6730 C   0  0  0  0  0  1  0  0  0  0  0  0
   -5.8110    0.6240    3.1940 N   0  0  0  0  0  0  0  0  0  0  0  0
   -6.4630    2.7810    3.0950 O   0  0  0  0  0  0  0  0  0  0  0  0
   -5.9910   -0.4080    2.5170 N   0  0  0  0  0  0  0  0  0  0  0  0
   -5.2540    0.6750    4.0470 H   0  0  0  0  0  0  0  0  0  0  0  0
   -5.6010   -1.3220    2.7500 H   0  0  0  0  0  0  0  0  0  0  0  0
  1 12  1  0  0  0  0
  2  1  1  0  0  0  0
  3  8  1  0  0  0  0
  3  1  1  1  0  0  0
  4  5  1  0  0  0  0
  4  3  1  0  0  0  0
  5 10  1  1  0  0  0
  5  7  1  0  0  0  0
  6  4  1  0  0  0  0
  7  9  1  0  0  0  0
  7  8  1  0  0  0  0
 10 11  1  0  0  0  0
 13 12  1  6  0  0  0
 13 14  1  0  0  0  0
 13 19  1  0  0  0  0
 14 15  1  0  0  0  0
 15 18  2  0  0  0  0
 15 17  1  0  0  0  0
 16 14  1  0  0  0  0
 17 20  1  0  0  0  0
 19 21  1  0  0  0  0
 19 17  1  0  0  0  0
M  END
>  <REMARK>
  4 active torsions:
  status: ('A' for Active; 'I' for Inactive)
    1  A    between atoms: C_2  and  C_3 
    2  A    between atoms: C_6  and  N_7 
    3  A    between atoms: N_7  and  C_9 
    4  A    between atoms: C_9  and  C_10 

>  <TORSDO>
F 4

$$$$
C:\Users\siddh\.mgltools\PyRx\Ligands\ZINC000584895208_uff_E=529.63.pdbqt
 OpenBabel04182118313D

 25 26  0  0  1  0  0  0  0  0999 V2000
    0.4890   -6.4510   -0.7240 C   0  0  0  0  0  2  0  0  0  0  0  0
    0.1890   -5.1380   -0.1840 N   0  0  0  0  0  0  0  0  0  0  0  0
    0.4980   -4.0470   -0.7910 C   0  0  1  0  0  3  0  0  0  0  0  0
    0.2170   -2.8220   -0.3120 N   0  0  0  0  0  0  0  0  0  0  0  0
    1.1510   -3.9830   -1.9680 N   0  0  0  0  0  0  0  0  0  0  0  0
    0.7350   -2.0150   -1.2630 C   0  0  2  0  0  3  0  0  0  0  0  0
   -0.2650   -2.5670    0.5500 H   0  0  0  0  0  0  0  0  0  0  0  0
    1.2800   -2.7200   -2.2270 O   0  0  0  0  0  0  0  0  0  0  0  0
    1.4640   -4.7380   -2.5170 H   0  0  0  0  0  0  0  0  0  0  0  0
   -0.2880   -5.0770    0.7160 H   0  0  0  0  0  0  0  0  0  0  0  0
    0.7080   -0.5190   -1.2410 C   0  0  0  0  0  2  0  0  0  0  0  0
   -0.0000    0.0130    0.0050 C   0  0  0  0  0  2  0  0  0  0  0  0
   -0.0200    1.5340    0.0130 C   0  0  0  0  0  1  0  0  0  0  0  0
    1.4580   -7.1950    0.1960 C   0  0  0  0  0  2  0  0  0  0  0  0
    1.7880   -8.5350   -0.3910 C   0  0  2  0  0  3  0  0  0  0  0  0
    3.0300   -8.9710   -0.6740 N   0  0  0  0  0  0  0  0  0  0  0  0
    2.9230  -10.1840   -1.1900 N   0  0  0  0  0  0  0  0  0  0  0  0
    3.9330   -8.4670   -0.5230 H   0  0  0  0  0  0  0  0  0  0  0  0
    1.6070  -10.4660   -1.2130 C   0  0  1  0  0  3  0  0  0  0  0  0
    3.6850  -10.7840   -1.5070 H   0  0  0  0  0  0  0  0  0  0  0  0
    0.8630   -9.4590   -0.7170 N   0  0  0  0  0  0  0  0  0  0  0  0
    1.0610  -11.6690   -1.7090 N   0  0  0  0  0  0  0  0  0  0  0  0
   -0.1500   -9.4080   -0.6130 H   0  0  0  0  0  0  0  0  0  0  0  0
    0.0400  -11.8060   -1.7120 H   0  0  0  0  0  0  0  0  0  0  0  0
    1.6750  -12.4100   -2.0760 H   0  0  0  0  0  0  0  0  0  0  0  0
  1  2  1  0  0  0  0
  1 14  1  0  0  0  0
  2 10  1  0  0  0  0
  3  4  1  0  0  0  0
  3  2  1  1  0  0  0
  4  7  1  0  0  0  0
  5  3  1  0  0  0  0
  6 11  1  1  0  0  0
  6  4  1  0  0  0  0
  8  5  1  0  0  0  0
  8  6  1  0  0  0  0
  9  5  1  0  0  0  0
 11 12  1  0  0  0  0
 12 13  1  0  0  0  0
 15 14  1  6  0  0  0
 16 18  1  0  0  0  0
 16 15  1  0  0  0  0
 17 16  1  0  0  0  0
 19 22  1  6  0  0  0
 19 17  1  0  0  0  0
 19 21  1  0  0  0  0
 20 17  1  0  0  0  0
 21 23  1  0  0  0  0
 21 15  1  0  0  0  0
 24 22  1  0  0  0  0
 25 22  1  0  0  0  0
M  END
>  <REMARK>
  5 active torsions:
  status: ('A' for Active; 'I' for Inactive)
    1  A    between atoms: C_2  and  C_3 
    2  A    between atoms: C_3  and  C_4 
       I    between atoms: C_7  and  N_8 
    3  A    between atoms: N_8  and  C_10 
    4  A    between atoms: C_10  and  C_11 
    5  A    between atoms: C_11  and  C_12 
       I    between atoms: C_15  and  N_16 

>  <TORSDO>
F 5

$$$$
C:\Users\siddh\.mgltools\PyRx\Ligands\ZINC000584880107_uff_E=1795.71.pdbqt
 OpenBabel04182118313D

 16 16  0  0  1  0  0  0  0  0999 V2000
   -1.1420   -2.0910    0.0510 C   0  0  1  0  0  0  0  0  0  0  0  0
   -1.8050   -2.8590    1.1920 C   0  0  0  0  0  2  0  0  0  0  0  0
   -2.5770   -2.6510   -0.1110 C   0  0  2  0  0  3  0  0  0  0  0  0
   -1.1870   -0.5710    0.0150 C   0  0  0  0  0  0  0  0  0  0  0  0
   -2.2490    0.0260   -0.1020 O   0  0  0  0  0  0  0  0  0  0  0  0
   -0.0220    0.1240    0.0860 O   0  0  0  0  0  0  0  0  0  0  0  0
    0.0320    1.5020    0.0440 C   0  0  0  0  0  1  0  0  0  0  0  0
   -0.0250   -2.7590   -0.7340 C   0  0  0  0  0  3  0  0  0  0  0  0
    1.2340   -2.3020   -0.5920 O   0  0  0  0  0  0  0  0  0  0  0  0
    1.9340   -2.7030   -1.0690 H   0  0  0  0  0  0  0  0  0  0  0  0
   -0.2450   -3.7930   -1.5620 O   0  0  0  0  0  0  0  0  0  0  0  0
   -1.1140   -4.1260   -1.6750 H   0  0  0  0  0  0  0  0  0  0  0  0
   -3.0510   -4.2820   -0.8000 S   0  0  0  0  0  0  0  0  0  0  0  0
   -4.7530   -4.8630   -0.6030 C   0  0  0  0  0  1  0  0  0  0  0  0
   -2.7640   -4.2860   -2.3100 O   0  0  0  0  0  0  0  0  0  0  0  0
   -2.1150   -5.4060   -0.3270 O   0  0  0  0  0  0  0  0  0  0  0  0
  1  8  1  6  0  0  0
  1  2  1  0  0  0  0
  3 13  1  6  0  0  0
  3  1  1  0  0  0  0
  3  2  1  0  0  0  0
  4  1  1  0  0  0  0
  4  6  1  0  0  0  0
  5  4  2  0  0  0  0
  7  6  1  0  0  0  0
  8  9  1  0  0  0  0
 10  9  1  0  0  0  0
 11  8  1  0  0  0  0
 12 11  1  0  0  0  0
 13 14  1  0  0  0  0
 13 16  2  0  0  0  0
 15 13  2  0  0  0  0
M  END
>  <REMARK>
  6 active torsions:
  status: ('A' for Active; 'I' for Inactive)
    1  A    between atoms: O_2  and  C_3 
    2  A    between atoms: C_3  and  C_5 
    3  A    between atoms: C_5  and  C_6 
    4  A    between atoms: C_6  and  O_7 
    5  A    between atoms: C_6  and  O_8 
    6  A    between atoms: C_10  and  S_11 

>  <TORSDO>
F 6

$$$$
C:\Users\siddh\.mgltools\PyRx\Ligands\ZINC000584880104_uff_E=1779.68.pdbqt
 OpenBabel04182118313D

 16 16  0  0  1  0  0  0  0  0999 V2000
   -1.1460   -2.0930   -0.0890 C   0  0  2  0  0  0  0  0  0  0  0  0
   -1.8320   -2.8190   -1.2510 C   0  0  0  0  0  2  0  0  0  0  0  0
   -2.5760   -2.6510    0.0690 C   0  0  1  0  0  3  0  0  0  0  0  0
   -1.1850   -0.5750   -0.0080 C   0  0  0  0  0  0  0  0  0  0  0  0
   -2.2400    0.0220    0.1590 O   0  0  0  0  0  0  0  0  0  0  0  0
   -0.0190    0.1150   -0.0980 O   0  0  0  0  0  0  0  0  0  0  0  0
    0.0400    1.4920   -0.0280 C   0  0  0  0  0  1  0  0  0  0  0  0
   -0.1280   -2.8000    0.7820 C   0  0  0  0  0  3  0  0  0  0  0  0
    0.4710   -2.1350    1.7890 O   0  0  0  0  0  0  0  0  0  0  0  0
    1.1000   -2.5700    2.3290 H   0  0  0  0  0  0  0  0  0  0  0  0
    0.2580   -4.0620    0.5140 O   0  0  0  0  0  0  0  0  0  0  0  0
   -0.1480   -4.5390   -0.1830 H   0  0  0  0  0  0  0  0  0  0  0  0
   -2.9770   -4.2850    0.7900 S   0  0  0  0  0  0  0  0  0  0  0  0
   -4.6480   -4.9390    0.5650 C   0  0  0  0  0  1  0  0  0  0  0  0
   -2.0050   -5.3820    0.3280 O   0  0  0  0  0  0  0  0  0  0  0  0
   -2.6780   -4.2550    2.2970 O   0  0  0  0  0  0  0  0  0  0  0  0
  1  4  1  6  0  0  0
  1  3  1  0  0  0  0
  1  8  1  0  0  0  0
  2  1  1  0  0  0  0
  2  3  1  0  0  0  0
  3 13  1  1  0  0  0
  4  5  2  0  0  0  0
  6  7  1  0  0  0  0
  6  4  1  0  0  0  0
  8  9  1  0  0  0  0
  9 10  1  0  0  0  0
 11  8  1  0  0  0  0
 12 11  1  0  0  0  0
 13 16  2  0  0  0  0
 14 13  1  0  0  0  0
 15 13  2  0  0  0  0
M  END
>  <REMARK>
  6 active torsions:
  status: ('A' for Active; 'I' for Inactive)
    1  A    between atoms: O_2  and  C_3 
    2  A    between atoms: C_3  and  C_5 
    3  A    between atoms: C_5  and  C_6 
    4  A    between atoms: C_6  and  O_7 
    5  A    between atoms: C_6  and  O_8 
    6  A    between atoms: C_10  and  S_11 

>  <TORSDO>
F 6

$$$$
C:\Users\siddh\.mgltools\PyRx\Ligands\ZINC000584879962_uff_E=616.94.pdbqt
 OpenBabel04182118313D

 14 15  0  0  1  0  0  0  0  0999 V2000
   -0.1160   -0.1230   -0.1200 O   0  0  0  0  0  0  0  0  0  0  0  0
   -0.0610    1.0860    0.0510 C   0  0  0  0  0  0  0  0  0  0  0  0
   -1.2380    1.7570    0.1390 N   0  0  0  0  0  0  0  0  0  0  0  0
   -1.2880    3.4830    0.2320 S   0  0  0  0  0  0  0  0  0  0  0  0
   -1.4730    3.9280   -1.2280 O   0  0  0  0  0  0  0  0  0  0  0  0
   -2.6130    3.7820    0.9470 O   0  0  0  0  0  0  0  0  0  0  0  0
    0.2260    3.8920    1.0360 C   0  0  0  0  0  2  0  0  0  0  0  0
    1.3610    3.1880    0.2720 C   0  0  1  0  0  3  0  0  0  0  0  0
    2.6500    3.4660    1.0800 C   0  0  0  0  0  2  0  0  0  0  0  0
    3.8530    2.7850    0.4400 C   0  0  0  0  0  2  0  0  0  0  0  0
    3.6060    1.2790    0.4340 C   0  0  0  0  0  2  0  0  0  0  0  0
    2.3530    0.9640   -0.3850 C   0  0  0  0  0  2  0  0  0  0  0  0
    1.1770    1.7250    0.0670 N   0  0  0  0  0  0  0  0  0  0  0  0
   -2.0810    1.2500    0.1510 H   0  0  0  0  0  0  0  0  0  0  0  0
  1  2  2  0  0  0  0
  2 13  1  0  0  0  0
  2  3  1  0  0  0  0
  3 14  1  0  0  0  0
  3  4  1  0  0  0  0
  4  6  2  0  0  0  0
  4  7  1  0  0  0  0
  5  4  2  0  0  0  0
  8  7  1  1  0  0  0
  8  9  1  0  0  0  0
 10  9  1  0  0  0  0
 11 10  1  0  0  0  0
 12 13  1  0  0  0  0
 12 11  1  0  0  0  0
 13  8  1  0  0  0  0
M  END
>  <REMARK>
  0 active torsions:
  status: ('A' for Active; 'I' for Inactive)

>  <TORSDO>
F 0

$$$$
C:\Users\siddh\.mgltools\PyRx\Ligands\ZINC000584879961_uff_E=609.40.pdbqt
 OpenBabel04182118313D

 14 15  0  0  1  0  0  0  0  0999 V2000
   -0.0820   -0.0600   -0.2420 O   0  0  0  0  0  0  0  0  0  0  0  0
   -0.0400    1.1420   -0.0190 C   0  0  0  0  0  0  0  0  0  0  0  0
   -1.2180    1.7960    0.1280 N   0  0  0  0  0  0  0  0  0  0  0  0
   -1.2630    3.5230    0.2140 S   0  0  0  0  0  0  0  0  0  0  0  0
   -1.3820    3.9450   -1.2580 O   0  0  0  0  0  0  0  0  0  0  0  0
   -2.6240    3.8180    0.8610 O   0  0  0  0  0  0  0  0  0  0  0  0
    0.2180    3.9050    1.1050 C   0  0  0  0  0  2  0  0  0  0  0  0
    1.4020    3.2040    0.4200 C   0  0  2  0  0  3  0  0  0  0  0  0
    1.9320    4.0010   -0.7840 C   0  0  0  0  0  2  0  0  0  0  0  0
    3.2060    3.3310   -1.3190 C   0  0  0  0  0  2  0  0  0  0  0  0
    2.9190    1.8730   -1.6980 C   0  0  0  0  0  2  0  0  0  0  0  0
    2.3790    1.1030   -0.4810 C   0  0  0  0  0  2  0  0  0  0  0  0
    1.1860    1.7960    0.0060 N   0  0  0  0  0  0  0  0  0  0  0  0
   -2.0560    1.2820    0.1860 H   0  0  0  0  0  0  0  0  0  0  0  0
  1  2  2  0  0  0  0
  2 13  1  0  0  0  0
  2  3  1  0  0  0  0
  3 14  1  0  0  0  0
  3  4  1  0  0  0  0
  4  6  2  0  0  0  0
  4  7  1  0  0  0  0
  5  4  2  0  0  0  0
  8  9  1  6  0  0  0
  8  7  1  0  0  0  0
 10  9  1  0  0  0  0
 11 10  1  0  0  0  0
 11 12  1  0  0  0  0
 12 13  1  0  0  0  0
 13  8  1  0  0  0  0
M  END
>  <REMARK>
  0 active torsions:
  status: ('A' for Active; 'I' for Inactive)

>  <TORSDO>
F 0

$$$$
C:\Users\siddh\.mgltools\PyRx\Ligands\ZINC000575436869_uff_E=99.02.pdbqt
 OpenBabel04182118313D

 18 17  0  0  0  0  0  0  0  0999 V2000
    1.4570   -4.1420   -2.4980 C   0  0  0  0  0  0  0  0  0  0  0  0
    0.9850   -4.8790   -1.6470 O   0  0  0  0  0  0  0  0  0  0  0  0
    2.0750   -4.6800   -3.5810 N   0  0  0  0  0  0  0  0  0  0  0  0
    2.4720   -4.0520   -4.2950 H   0  0  0  0  0  0  0  0  0  0  0  0
    1.3620   -2.6330   -2.3580 C   0  0  0  0  0  2  0  0  0  0  0  0
    0.6360   -2.0940   -1.0810 C   0  0  0  0  0  0  0  0  0  0  0  0
    1.3830   -2.5460    0.1960 C   0  0  0  0  0  1  0  0  0  0  0  0
   -0.8370   -2.5700   -1.0580 C   0  0  0  0  0  1  0  0  0  0  0  0
    0.6210   -0.5700   -1.0830 C   0  0  0  0  0  0  0  0  0  0  0  0
    1.1330    0.0590   -2.0010 O   0  0  0  0  0  0  0  0  0  0  0  0
    0.0300    0.0880   -0.0500 O   0  0  0  0  0  0  0  0  0  0  0  0
   -0.0310    1.4620    0.0340 C   0  0  0  0  0  1  0  0  0  0  0  0
    2.1690   -6.1250   -3.7210 C   0  0  0  0  0  2  0  0  0  0  0  0
    2.8790   -6.5610   -4.9710 C   0  0  0  0  0  3  0  0  0  0  0  0
    3.3670   -5.6660   -5.8510 O   0  0  0  0  0  0  0  0  0  0  0  0
    3.8070   -5.9610   -6.6240 H   0  0  0  0  0  0  0  0  0  0  0  0
    3.0300   -7.8770   -5.2130 O   0  0  0  0  0  0  0  0  0  0  0  0
    2.6930   -8.5060   -4.6050 H   0  0  0  0  0  0  0  0  0  0  0  0
  1  5  1  0  0  0  0
  1  2  2  0  0  0  0
  3  1  1  0  0  0  0
  4  3  1  0  0  0  0
  5  6  1  0  0  0  0
  6  8  1  0  0  0  0
  6  7  1  0  0  0  0
  9  6  1  0  0  0  0
  9 11  1  0  0  0  0
 10  9  2  0  0  0  0
 11 12  1  0  0  0  0
 13  3  1  0  0  0  0
 14 13  1  0  0  0  0
 15 14  1  0  0  0  0
 16 15  1  0  0  0  0
 17 14  1  0  0  0  0
 17 18  1  0  0  0  0
M  END
>  <REMARK>
  8 active torsions:
  status: ('A' for Active; 'I' for Inactive)
    1  A    between atoms: O_2  and  C_3 
    2  A    between atoms: C_3  and  C_5 
    3  A    between atoms: C_5  and  C_8 
    4  A    between atoms: C_8  and  C_9 
       I    between atoms: C_9  and  N_11 
    5  A    between atoms: N_11  and  C_12 
    6  A    between atoms: C_12  and  C_13 
    7  A    between atoms: C_13  and  O_14 
    8  A    between atoms: C_13  and  O_15 

>  <TORSDO>
F 8

$$$$
C:\Users\siddh\.mgltools\PyRx\Ligands\ZINC000534587382_uff_E=268.58.pdbqt
 OpenBabel04182118313D

 18 19  0  0  1  0  0  0  0  0999 V2000
   -2.3610    0.9490    0.0150 N   0  0  0  0  0  0  0  0  0  0  0  0
   -2.9750    0.5270   -1.2380 C   0  0  0  0  0  2  0  0  0  0  0  0
   -3.7670   -0.7670   -1.0720 C   0  0  0  0  0  2  0  0  0  0  0  0
   -4.7190   -0.5780    0.0250 N   0  0  2  0  0  0  0  0  0  0  0  0
   -3.9790   -0.4920    1.3050 C   0  0  0  0  0  2  0  0  0  0  0  0
   -2.7770    0.4300    1.2160 C   0  0  0  0  0  0  0  0  0  0  0  0
   -2.1970    0.7340    2.2510 O   0  0  0  0  0  0  0  0  0  0  0  0
   -1.2930    1.9370   -0.0410 C   0  0  0  0  0  2  0  0  0  0  0  0
    0.0550    1.2900    0.1100 C   0  0  0  0  0  3  0  0  0  0  0  0
    0.1660   -0.0470    0.2430 O   0  0  0  0  0  0  0  0  0  0  0  0
    0.3720   -0.9280    0.4880 H   0  0  0  0  0  0  0  0  0  0  0  0
    1.1670    2.0470    0.0630 O   0  0  0  0  0  0  0  0  0  0  0  0
    1.0960    2.9770   -0.0300 H   0  0  0  0  0  0  0  0  0  0  0  0
   -5.7700   -1.6220    0.0600 C   0  0  2  0  0  3  0  0  0  0  0  0
   -6.6670   -1.6220   -1.1800 C   0  0  0  0  0  2  0  0  0  0  0  0
   -7.8900   -2.2410   -0.8280 O   0  0  0  0  0  0  0  0  0  0  0  0
   -7.9070   -2.3040    0.5840 C   0  0  0  0  0  2  0  0  0  0  0  0
   -6.8360   -1.3570    1.0870 C   0  0  0  0  0  2  0  0  0  0  0  0
  1  6  1  0  0  0  0
  2  3  1  0  0  0  0
  2  1  1  0  0  0  0
  4  3  1  6  0  0  0
  4 14  1  0  0  0  0
  4  5  1  0  0  0  0
  6  5  1  0  0  0  0
  6  7  2  0  0  0  0
  8  1  1  0  0  0  0
  8  9  1  0  0  0  0
  9 10  1  0  0  0  0
 10 11  1  0  0  0  0
 12  9  1  0  0  0  0
 13 12  1  0  0  0  0
 14 15  1  6  0  0  0
 14 18  1  0  0  0  0
 15 16  1  0  0  0  0
 16 17  1  0  0  0  0
 17 18  1  0  0  0  0
M  END
>  <REMARK>
  5 active torsions:
  status: ('A' for Active; 'I' for Inactive)
    1  A    between atoms: O_1  and  C_2 
    2  A    between atoms: C_2  and  O_3 
    3  A    between atoms: C_2  and  C_4 
    4  A    between atoms: C_4  and  N_5 
    5  A    between atoms: N_8  and  C_9 

>  <TORSDO>
F 5

$$$$
C:\Users\siddh\.mgltools\PyRx\Ligands\ZINC000526059748_uff_E=718.04.pdbqt
 OpenBabel04182118313D

 18 19  0  0  1  0  0  0  0  0999 V2000
   -1.3270   -0.4660   -0.0000 N   0  0  0  0  0  0  0  0  0  0  0  0
   -2.0770   -0.7600    1.0910 C   0  0  0  0  0  3  0  0  0  0  0  0
   -3.3110   -1.2030    0.6660 C   0  0  0  0  0  0  0  0  0  0  0  0
   -4.3690   -1.6220    1.3950 N   0  0  0  0  0  0  0  0  0  0  0  0
   -5.4910   -2.0310    0.7300 C   0  0  1  0  0  3  0  0  0  0  0  0
   -5.5320   -2.0200   -0.6430 N   0  0  0  0  0  0  0  0  0  0  0  0
   -6.3760   -2.3370   -1.1210 H   0  0  0  0  0  0  0  0  0  0  0  0
   -4.4650   -1.5920   -1.3790 C   0  0  0  0  0  3  0  0  0  0  0  0
   -3.3310   -1.1830   -0.6960 C   0  0  0  0  0  0  0  0  0  0  0  0
   -2.1000   -0.7250   -1.0970 C   0  0  0  0  0  0  0  0  0  0  0  0
   -1.7350   -0.5740   -2.2500 O   0  0  0  0  0  0  0  0  0  0  0  0
   -4.3330   -1.6320    2.3780 H   0  0  0  0  0  0  0  0  0  0  0  0
   -6.8450   -2.7280    1.6480 S   0  0  0  0  0  0  0  0  0  0  0  0
   -6.8070   -4.4710    2.1320 C   0  0  0  0  0  1  0  0  0  0  0  0
   -7.0830   -1.8620    2.8950 O   0  0  0  0  0  0  0  0  0  0  0  0
   -8.1470   -2.4480    0.8820 O   0  0  0  0  0  0  0  0  0  0  0  0
    0.0430    0.0360    0.0110 C   0  0  0  0  0  2  0  0  0  0  0  0
    0.0350    1.5580    0.0110 C   0  0  0  0  0  1  0  0  0  0  0  0
  1 17  1  0  0  0  0
  1  2  1  0  0  0  0
  3  2  2  0  0  0  0
  3  4  1  0  0  0  0
  4 12  1  0  0  0  0
  5  4  1  0  0  0  0
  5 13  1  6  0  0  0
  6  5  1  0  0  0  0
  7  6  1  0  0  0  0
  8  9  2  0  0  0  0
  8  6  1  0  0  0  0
  9  3  1  0  0  0  0
 10  9  1  0  0  0  0
 10  1  1  0  0  0  0
 11 10  2  0  0  0  0
 13 14  1  0  0  0  0
 13 15  2  0  0  0  0
 16 13  2  0  0  0  0
 17 18  1  0  0  0  0
M  END
>  <REMARK>
  2 active torsions:
  status: ('A' for Active; 'I' for Inactive)
    1  A    between atoms: C_2  and  N_3 
    2  A    between atoms: C_7  and  S_8 

>  <TORSDO>
F 2

$$$$
C:\Users\siddh\.mgltools\PyRx\Ligands\ZINC000524728979_uff_E=420.68.pdbqt
 OpenBabel04182118313D

 24 25  0  0  1  0  0  0  0  0999 V2000
   -1.3420   -0.5240    0.0470 C   0  0  1  0  0  3  0  0  0  0  0  0
   -1.5490   -1.9120    0.0390 C   0  0  0  0  0  0  0  0  0  0  0  0
   -0.6810   -2.9300    0.1950 N   0  0  0  0  0  0  0  0  0  0  0  0
    0.3250   -2.8740    0.3530 H   0  0  0  0  0  0  0  0  0  0  0  0
   -1.4470   -4.0480    0.0930 C   0  0  0  0  0  2  0  0  0  0  0  0
   -2.7490   -3.7510   -0.1310 N   0  0  0  0  0  0  0  0  0  0  0  0
   -2.7940   -2.4100   -0.1640 C   0  0  0  0  0  0  0  0  0  0  0  0
   -3.8790   -1.6230   -0.3410 N   0  0  0  0  0  0  0  0  0  0  0  0
   -4.8050   -2.0280   -0.4770 H   0  0  0  0  0  0  0  0  0  0  0  0
   -3.6990   -0.2660   -0.3310 C   0  0  1  0  0  3  0  0  0  0  0  0
   -4.8080    0.5960   -0.4650 N   0  0  0  0  0  0  0  0  0  0  0  0
   -2.4440    0.2630   -0.1550 N   0  0  0  0  0  0  0  0  0  0  0  0
   -2.3290    1.2770   -0.1760 H   0  0  0  0  0  0  0  0  0  0  0  0
   -5.7590    0.2100   -0.5590 H   0  0  0  0  0  0  0  0  0  0  0  0
   -4.6780    1.6170   -0.4250 H   0  0  0  0  0  0  0  0  0  0  0  0
   -3.8500   -4.7050   -0.2780 C   0  0  0  0  0  2  0  0  0  0  0  0
   -4.3760   -4.7460   -1.6850 C   0  0  0  0  0  3  0  0  0  0  0  0
   -3.8200   -3.9920   -2.6540 O   0  0  0  0  0  0  0  0  0  0  0  0
   -4.1590   -4.0270   -3.5270 H   0  0  0  0  0  0  0  0  0  0  0  0
   -5.3880   -5.5790   -1.9900 O   0  0  0  0  0  0  0  0  0  0  0  0
   -5.7790   -6.1070   -1.3210 H   0  0  0  0  0  0  0  0  0  0  0  0
   -0.0580    0.0860    0.2610 N   0  0  0  0  0  0  0  0  0  0  0  0
    0.0550    1.5230    0.0720 C   0  0  0  0  0  1  0  0  0  0  0  0
    0.9050   -0.5450    1.1500 C   0  0  0  0  0  1  0  0  0  0  0  0
  1 22  1  1  0  0  0
  2  1  1  0  0  0  0
  2  3  1  0  0  0  0
  3  4  1  0  0  0  0
  5  3  1  0  0  0  0
  6  5  1  0  0  0  0
  7  6  1  0  0  0  0
  7  2  2  0  0  0  0
  8 10  1  0  0  0  0
  8  7  1  0  0  0  0
  9  8  1  0  0  0  0
 10 11  1  1  0  0  0
 10 12  1  0  0  0  0
 11 15  1  0  0  0  0
 12  1  1  0  0  0  0
 13 12  1  0  0  0  0
 14 11  1  0  0  0  0
 16  6  1  0  0  0  0
 17 16  1  0  0  0  0
 18 17  1  0  0  0  0
 19 18  1  0  0  0  0
 20 17  1  0  0  0  0
 20 21  1  0  0  0  0
 22 24  1  0  0  0  0
 23 22  1  0  0  0  0
M  END
>  <REMARK>
  5 active torsions:
  status: ('A' for Active; 'I' for Inactive)
    1  A    between atoms: N_2  and  C_4 
    2  A    between atoms: N_9  and  C_10 
    3  A    between atoms: C_10  and  C_11 
    4  A    between atoms: C_11  and  O_12 
    5  A    between atoms: C_11  and  O_13 
       I    between atoms: C_17  and  N_18 

>  <TORSDO>
F 5

$$$$
C:\Users\siddh\.mgltools\PyRx\Ligands\ZINC000521398321_uff_E=640.52.pdbqt
 OpenBabel04182118313D

 17 17  0  0  0  0  0  0  0  0999 V2000
   -0.0180    1.5510    0.0280 C   0  0  0  0  0  1  0  0  0  0  0  0
    0.0030    0.0550   -0.0040 C   0  0  0  0  0  0  0  0  0  0  0  0
    0.0640   -0.7740   -1.1150 C   0  0  0  0  0  0  0  0  0  0  0  0
    0.0570   -2.0290   -0.7190 O   0  0  0  0  0  0  0  0  0  0  0  0
   -0.0040   -2.0580    0.5920 C   0  0  0  0  0  0  0  0  0  0  0  0
   -0.0440   -0.7760    1.0950 C   0  0  0  0  0  3  0  0  0  0  0  0
   -0.0570   -3.5620    1.5540 S   0  0  0  0  0  0  0  0  0  0  0  0
    0.8090   -4.6770    0.9500 O   0  0  0  0  0  0  0  0  0  0  0  0
    0.5430   -3.4010    2.9600 O   0  0  0  0  0  0  0  0  0  0  0  0
   -1.6490   -4.2870    1.7890 N   0  0  0  0  0  0  0  0  0  0  0  0
   -2.3470   -3.5100    1.8030 H   0  0  0  0  0  0  0  0  0  0  0  0
   -1.6680   -4.7470    2.7270 H   0  0  0  0  0  0  0  0  0  0  0  0
    0.0990   -0.3830   -2.5340 C   0  0  0  0  0  3  0  0  0  0  0  0
    0.0900    0.9160   -2.8910 O   0  0  0  0  0  0  0  0  0  0  0  0
    0.1120    1.1530   -3.7970 H   0  0  0  0  0  0  0  0  0  0  0  0
    0.1180   -1.3320   -3.4880 O   0  0  0  0  0  0  0  0  0  0  0  0
    0.1240   -2.2380   -3.2470 H   0  0  0  0  0  0  0  0  0  0  0  0
  2  1  1  0  0  0  0
  2  6  1  0  0  0  0
  3  4  1  0  0  0  0
  3  2  2  0  0  0  0
  4  5  1  0  0  0  0
  5  6  2  0  0  0  0
  5  7  1  0  0  0  0
  7 10  1  0  0  0  0
  7  9  2  0  0  0  0
  8  7  2  0  0  0  0
 10 11  1  0  0  0  0
 10 12  1  0  0  0  0
 13  3  1  0  0  0  0
 14 13  1  0  0  0  0
 15 14  1  0  0  0  0
 16 17  1  0  0  0  0
 16 13  1  0  0  0  0
M  END
>  <REMARK>
  5 active torsions:
  status: ('A' for Active; 'I' for Inactive)
    1  A    between atoms: C_3  and  C_4 
    2  A    between atoms: C_4  and  O_5 
    3  A    between atoms: C_4  and  O_6 
    4  A    between atoms: C_8  and  S_9 
    5  A    between atoms: S_9  and  N_10 

>  <TORSDO>
F 5

$$$$
C:\Users\siddh\.mgltools\PyRx\Ligands\ZINC000521398296_uff_E=402.42.pdbqt
 OpenBabel04182118313D

 18 19  0  0  0  0  0  0  0  0999 V2000
   -2.5590    1.0170    0.0230 C   0  0  0  0  0  0  0  0  0  0  0  0
   -2.6000    0.2300    1.3560 C   0  0  0  0  0  2  0  0  0  0  0  0
   -3.9190   -0.5560    1.4560 C   0  0  0  0  0  2  0  0  0  0  0  0
   -5.0290    0.3260    1.4550 O   0  0  0  0  0  0  0  0  0  0  0  0
   -5.1090    1.0100    0.2180 C   0  0  0  0  0  2  0  0  0  0  0  0
   -3.8570    1.8740   -0.0180 C   0  0  0  0  0  2  0  0  0  0  0  0
   -1.3080    1.9440    0.0010 C   0  0  0  0  0  3  0  0  0  0  0  0
   -1.0900    2.7010   -1.2890 C   0  0  0  0  0  0  0  0  0  0  0  0
   -1.9070    2.5400   -2.3490 O   0  0  0  0  0  0  0  0  0  0  0  0
   -2.2520    3.2880   -2.7950 H   0  0  0  0  0  0  0  0  0  0  0  0
   -0.0400    3.5370   -1.3920 O   0  0  0  0  0  0  0  0  0  0  0  0
    0.5360    3.6580   -0.6630 H   0  0  0  0  0  0  0  0  0  0  0  0
   -2.4750    0.0650   -1.1090 N   0  0  0  0  0  0  0  0  0  0  0  0
   -3.3760   -0.0920   -2.0630 N   0  0  0  0  0  0  0  0  0  0  0  0
   -2.9510   -1.0240   -2.9040 N   0  0  0  0  0  0  0  0  0  0  0  0
   -1.7680   -1.4710   -2.5080 N   0  0  0  0  0  0  0  0  0  0  0  0
   -1.4720   -0.7890   -1.3870 C   0  0  0  0  0  2  0  0  0  0  0  0
   -1.1980   -2.1860   -2.9600 H   0  0  0  0  0  0  0  0  0  0  0  0
  1  2  1  0  0  0  0
  2  3  1  0  0  0  0
  4  3  1  0  0  0  0
  5  4  1  0  0  0  0
  6  1  1  0  0  0  0
  6  5  1  0  0  0  0
  7  1  1  0  0  0  0
  8  7  2  0  0  0  0
  9  8  1  0  0  0  0
 10  9  1  0  0  0  0
 11  8  1  0  0  0  0
 11 12  1  0  0  0  0
 13  1  1  0  0  0  0
 14 13  1  0  0  0  0
 15 16  1  0  0  0  0
 15 14  2  0  0  0  0
 16 17  1  0  0  0  0
 17 13  1  0  0  0  0
 18 16  1  0  0  0  0
M  END
>  <REMARK>
  5 active torsions:
  status: ('A' for Active; 'I' for Inactive)
    1  A    between atoms: O_1  and  C_2 
    2  A    between atoms: C_2  and  O_3 
    3  A    between atoms: C_2  and  C_4 
    4  A    between atoms: C_4  and  C_5 
    5  A    between atoms: C_5  and  N_6 

>  <TORSDO>
F 5

$$$$
C:\Users\siddh\.mgltools\PyRx\Ligands\ZINC000426612630_uff_E=375.37.pdbqt
 OpenBabel04182118313D

 21 21  0  0  1  0  0  0  0  0999 V2000
   -0.8620   -2.6050   -1.0800 N   0  0  0  0  0  0  0  0  0  0  0  0
   -1.3560   -2.8950    0.1810 C   0  0  0  0  0  0  0  0  0  0  0  0
   -0.7210   -2.5430    1.1660 O   0  0  0  0  0  0  0  0  0  0  0  0
    0.4040   -1.8790   -1.2130 C   0  0  0  0  0  2  0  0  0  0  0  0
    0.2020   -0.3620   -1.1890 C   0  0  0  0  0  2  0  0  0  0  0  0
   -0.3010    0.0440    0.0650 O   0  0  0  0  0  0  0  0  0  0  0  0
   -0.4100    1.4500    0.0860 C   0  0  0  0  0  1  0  0  0  0  0  0
   -1.5760   -2.9510   -2.3090 C   0  0  0  0  0  2  0  0  0  0  0  0
   -1.5350   -4.4270   -2.6000 C   0  0  0  0  0  3  0  0  0  0  0  0
   -0.8800   -5.2760   -1.7840 O   0  0  0  0  0  0  0  0  0  0  0  0
   -0.8630   -6.1920   -1.9780 H   0  0  0  0  0  0  0  0  0  0  0  0
   -2.1490   -4.9030   -3.7000 O   0  0  0  0  0  0  0  0  0  0  0  0
   -2.6060   -4.3180   -4.2720 H   0  0  0  0  0  0  0  0  0  0  0  0
   -2.6500   -3.6060    0.4300 C   0  0  2  0  0  3  0  0  0  0  0  0
   -3.1760   -3.7600    1.6650 N   0  0  0  0  0  0  0  0  0  0  0  0
   -4.3270   -4.4290    1.4970 C   0  0  0  0  0  3  0  0  0  0  0  0
   -2.7810   -3.4240    2.5720 H   0  0  0  0  0  0  0  0  0  0  0  0
   -4.4780   -4.6850    0.1540 C   0  0  0  0  0  0  0  0  0  0  0  0
   -3.4320   -4.1690   -0.5170 N   0  0  0  0  0  0  0  0  0  0  0  0
   -5.6030   -5.4190   -0.4950 C   0  0  0  0  0  1  0  0  0  0  0  0
   -3.2660   -4.1960   -1.5230 H   0  0  0  0  0  0  0  0  0  0  0  0
  1  2  1  0  0  0  0
  2  3  2  0  0  0  0
  4  5  1  0  0  0  0
  4  1  1  0  0  0  0
  5  6  1  0  0  0  0
  6  7  1  0  0  0  0
  8  1  1  0  0  0  0
  9  8  1  0  0  0  0
  9 10  1  0  0  0  0
 11 10  1  0  0  0  0
 12  9  1  0  0  0  0
 13 12  1  0  0  0  0
 14  2  1  1  0  0  0
 14 15  1  0  0  0  0
 15 17  1  0  0  0  0
 16 15  1  0  0  0  0
 18 16  2  0  0  0  0
 19 18  1  0  0  0  0
 19 14  1  0  0  0  0
 20 18  1  0  0  0  0
 21 19  1  0  0  0  0
M  END
>  <REMARK>
  8 active torsions:
  status: ('A' for Active; 'I' for Inactive)
    1  A    between atoms: O_2  and  C_3 
    2  A    between atoms: C_3  and  C_4 
    3  A    between atoms: C_4  and  N_5 
    4  A    between atoms: N_5  and  C_6 
       I    between atoms: N_5  and  C_10 
    5  A    between atoms: C_6  and  C_7 
    6  A    between atoms: C_7  and  O_8 
    7  A    between atoms: C_7  and  O_9 
    8  A    between atoms: C_10  and  C_12 

>  <TORSDO>
F 8

$$$$
C:\Users\siddh\.mgltools\PyRx\Ligands\ZINC000426415395_uff_E=396.29.pdbqt
 OpenBabel04182118313D

 20 21  0  0  1  0  0  0  0  0999 V2000
    0.0080    1.5130    0.0090 C   0  0  0  0  0  1  0  0  0  0  0  0
    0.0170   -0.0140    0.0440 C   0  0  2  0  0  3  0  0  0  0  0  0
   -1.4280   -0.5350    0.0780 C   0  0  0  0  0  2  0  0  0  0  0  0
   -1.3870   -1.9830    0.2190 N   0  0  0  0  0  0  0  0  0  0  0  0
   -2.0540   -2.7970   -0.6630 C   0  0  0  0  0  0  0  0  0  0  0  0
   -2.6930   -2.2900   -1.5750 O   0  0  0  0  0  0  0  0  0  0  0  0
   -0.5960   -2.4890    1.3300 C   0  0  0  0  0  2  0  0  0  0  0  0
    0.8090   -1.8640    1.2360 C   0  0  2  0  0  3  0  0  0  0  0  0
    1.6370   -2.2740    2.4530 C   0  0  0  0  0  1  0  0  0  0  0  0
    0.7180   -0.4450    1.2030 O   0  0  0  0  0  0  0  0  0  0  0  0
   -2.0470   -4.3160   -0.5170 C   0  0  0  0  0  3  0  0  0  0  0  0
   -2.8800   -5.0610   -1.5320 C   0  0  0  0  0  0  0  0  0  0  0  0
   -2.9960   -6.4090   -1.5550 N   0  0  0  0  0  0  0  0  0  0  0  0
   -3.8220   -6.6140   -2.6100 C   0  0  0  0  0  0  0  0  0  0  0  0
   -2.5850   -7.0730   -0.9560 H   0  0  0  0  0  0  0  0  0  0  0  0
   -4.1860   -5.4530   -3.1930 N   0  0  0  0  0  0  0  0  0  0  0  0
   -4.1900   -7.7120   -2.9880 O   0  0  0  0  0  0  0  0  0  0  0  0
   -3.6000   -4.4820   -2.5210 N   0  0  0  0  0  0  0  0  0  0  0  0
   -4.8090   -5.3110   -4.0170 H   0  0  0  0  0  0  0  0  0  0  0  0
   -3.6740   -3.4830   -2.7110 H   0  0  0  0  0  0  0  0  0  0  0  0
  2  1  1  1  0  0  0
  2  3  1  0  0  0  0
  2 10  1  0  0  0  0
  3  4  1  0  0  0  0
  4  7  1  0  0  0  0
  5 11  1  0  0  0  0
  5  4  1  0  0  0  0
  6  5  2  0  0  0  0
  8  7  1  0  0  0  0
  8  9  1  1  0  0  0
 10  8  1  0  0  0  0
 12 11  2  0  0  0  0
 13 12  1  0  0  0  0
 13 15  1  0  0  0  0
 14 13  1  0  0  0  0
 16 14  1  0  0  0  0
 16 18  1  0  0  0  0
 17 14  2  0  0  0  0
 18 12  1  0  0  0  0
 19 16  1  0  0  0  0
 20 18  1  0  0  0  0
M  END
>  <REMARK>
  2 active torsions:
  status: ('A' for Active; 'I' for Inactive)
       I    between atoms: N_4  and  C_5 
    1  A    between atoms: C_5  and  C_7 
    2  A    between atoms: C_7  and  C_8 

>  <TORSDO>
F 2

$$$$
C:\Users\siddh\.mgltools\PyRx\Ligands\ZINC000408522743_uff_E=953.22.pdbqt
 OpenBabel04182118313D

 17 18  0  0  1  0  0  0  0  0999 V2000
    2.0960   -1.5390   -2.9940 N   0  0  0  0  0  0  0  0  0  0  0  0
    2.5740   -1.1560   -2.1790 H   0  0  0  0  0  0  0  0  0  0  0  0
    0.6460   -1.5950   -2.9340 C   0  0  0  0  0  3  0  0  0  0  0  0
    0.1570   -0.1630   -2.5500 C   0  0  0  0  0  2  0  0  0  0  0  0
    0.0400   -0.6740   -1.2350 N   0  0  0  0  0  0  0  0  0  0  0  0
   -0.1360   -0.0320   -0.0510 C   0  0  0  0  0  0  0  0  0  0  0  0
    0.2500   -2.0510   -1.4930 C   0  0  0  0  0  2  0  0  0  0  0  0
   -0.2380    1.4650    0.0100 C   0  0  0  0  0  1  0  0  0  0  0  0
   -0.1370   -0.6710    0.9910 O   0  0  0  0  0  0  0  0  0  0  0  0
    2.8330   -1.9220   -3.9670 C   0  0  1  0  0  3  0  0  0  0  0  0
    2.3970   -2.5810   -5.3950 S   0  0  0  0  0  0  0  0  0  0  0  0
    3.8760   -2.7690   -6.0860 N   0  0  0  0  0  0  0  0  0  0  0  0
    4.7420   -2.2810   -5.1340 C   0  0  2  0  0  3  0  0  0  0  0  0
    4.0910   -3.1420   -6.9710 H   0  0  0  0  0  0  0  0  0  0  0  0
    4.1800   -1.8100   -3.9580 N   0  0  0  0  0  0  0  0  0  0  0  0
    6.2160   -2.2500   -5.3530 C   0  0  0  0  0  1  0  0  0  0  0  0
    4.7180   -1.4270   -3.1800 H   0  0  0  0  0  0  0  0  0  0  0  0
  1  3  1  0  0  0  0
  1  2  1  0  0  0  0
  3  4  1  0  0  0  0
  3  7  1  0  0  0  0
  4  5  1  0  0  0  0
  5  6  1  0  0  0  0
  6  8  1  0  0  0  0
  6  9  2  0  0  0  0
  7  5  1  0  0  0  0
 10 15  1  0  0  0  0
 10  1  1  6  0  0  0
 11 10  1  0  0  0  0
 12 11  1  0  0  0  0
 12 13  1  0  0  0  0
 13 16  1  6  0  0  0
 13 15  1  0  0  0  0
 14 12  1  0  0  0  0
 15 17  1  0  0  0  0
M  END
>  <REMARK>
  2 active torsions:
  status: ('A' for Active; 'I' for Inactive)
       I    between atoms: C_2  and  N_4 
    1  A    between atoms: C_6  and  N_7 
    2  A    between atoms: N_7  and  C_9 

>  <TORSDO>
F 2

$$$$
C:\Users\siddh\.mgltools\PyRx\Ligands\ZINC000408518576_uff_E=555.99.pdbqt
 OpenBabel04182118313D

 23 24  0  0  1  0  0  0  0  0999 V2000
   -2.1420   -4.9920    1.2830 C   0  0  0  0  0  2  0  0  0  0  0  0
   -1.6210   -4.3460    0.0010 C   0  0  0  0  0  2  0  0  0  0  0  0
   -1.8700   -2.9180    0.0300 N   0  0  0  0  0  0  0  0  0  0  0  0
   -2.8390   -2.6020    0.0710 H   0  0  0  0  0  0  0  0  0  0  0  0
   -0.9430   -2.0240    0.0080 C   0  0  1  0  0  3  0  0  0  0  0  0
   -1.1840   -0.6930    0.0240 N   0  0  0  0  0  0  0  0  0  0  0  0
    0.0000    0.0370    0.0020 C   0  0  1  0  0  3  0  0  0  0  0  0
   -2.1150   -0.2770    0.0480 H   0  0  0  0  0  0  0  0  0  0  0  0
   -0.0070    1.5270    0.0110 C   0  0  0  0  0  1  0  0  0  0  0  0
    1.1740   -0.6760   -0.0280 N   0  0  0  0  0  0  0  0  0  0  0  0
    0.6780   -2.2370   -0.0290 S   0  0  0  0  0  0  0  0  0  0  0  0
    2.0960   -0.3300   -0.0440 H   0  0  0  0  0  0  0  0  0  0  0  0
   -1.8540   -6.4610    1.2590 C   0  0  2  0  0  3  0  0  0  0  0  0
   -1.1230   -7.1150    2.1810 N   0  0  0  0  0  0  0  0  0  0  0  0
   -1.0600   -8.3840    1.8180 N   0  0  0  0  0  0  0  0  0  0  0  0
   -0.6710   -6.7160    3.0330 H   0  0  0  0  0  0  0  0  0  0  0  0
   -1.7590   -8.4810    0.6720 C   0  0  1  0  0  3  0  0  0  0  0  0
   -0.5780   -9.1380    2.3070 H   0  0  0  0  0  0  0  0  0  0  0  0
   -2.2770   -7.2970    0.2900 N   0  0  0  0  0  0  0  0  0  0  0  0
   -1.9160   -9.6760   -0.0600 N   0  0  0  0  0  0  0  0  0  0  0  0
   -2.8470   -7.0850   -0.5290 H   0  0  0  0  0  0  0  0  0  0  0  0
   -2.4440   -9.6730   -0.9450 H   0  0  0  0  0  0  0  0  0  0  0  0
   -1.4910  -10.5510    0.2770 H   0  0  0  0  0  0  0  0  0  0  0  0
  2  3  1  0  0  0  0
  2  1  1  0  0  0  0
  3  4  1  0  0  0  0
  5  6  1  0  0  0  0
  5  3  1  1  0  0  0
  6  8  1  0  0  0  0
  7  9  1  1  0  0  0
  7  6  1  0  0  0  0
 10  7  1  0  0  0  0
 11 10  1  0  0  0  0
 11  5  1  0  0  0  0
 12 10  1  0  0  0  0
 13  1  1  6  0  0  0
 13 14  1  0  0  0  0
 14 16  1  0  0  0  0
 15 14  1  0  0  0  0
 15 18  1  0  0  0  0
 17 20  1  6  0  0  0
 17 15  1  0  0  0  0
 19 17  1  0  0  0  0
 19 13  1  0  0  0  0
 20 23  1  0  0  0  0
 21 19  1  0  0  0  0
 22 20  1  0  0  0  0
M  END
>  <REMARK>
  4 active torsions:
  status: ('A' for Active; 'I' for Inactive)
    1  A    between atoms: C_5  and  N_6 
    2  A    between atoms: N_6  and  C_8 
    3  A    between atoms: C_8  and  C_9 
    4  A    between atoms: C_9  and  C_10 
       I    between atoms: C_13  and  N_14 

>  <TORSDO>
F 4

$$$$
C:\Users\siddh\.mgltools\PyRx\Ligands\ZINC000393871654_uff_E=373.91.pdbqt
 OpenBabel04182118313D

 19 19  0  0  1  0  0  0  0  0999 V2000
   -1.8770   -2.9130   -0.0360 N   0  0  0  0  0  0  0  0  0  0  0  0
   -2.8450   -2.5900   -0.0350 H   0  0  0  0  0  0  0  0  0  0  0  0
   -0.9470   -2.0230   -0.0440 C   0  0  1  0  0  3  0  0  0  0  0  0
   -1.1820   -0.6910   -0.0240 N   0  0  0  0  0  0  0  0  0  0  0  0
    0.0030    0.0350   -0.0090 C   0  0  2  0  0  3  0  0  0  0  0  0
   -2.1120   -0.2720   -0.0210 H   0  0  0  0  0  0  0  0  0  0  0  0
   -0.0030    1.5220    0.0100 C   0  0  0  0  0  1  0  0  0  0  0  0
    1.1760   -0.6820   -0.0130 N   0  0  0  0  0  0  0  0  0  0  0  0
    0.6740   -2.2410   -0.0350 S   0  0  0  0  0  0  0  0  0  0  0  0
    2.0990   -0.3390   -0.0050 H   0  0  0  0  0  0  0  0  0  0  0  0
   -1.6390   -4.3470   -0.0270 C   0  0  0  0  0  2  0  0  0  0  0  0
   -2.1320   -4.9720    1.3050 C   0  0  0  0  0  0  0  0  0  0  0  0
   -3.6570   -4.7590    1.4410 C   0  0  0  0  0  1  0  0  0  0  0  0
   -1.8340   -6.4920    1.3030 C   0  0  0  0  0  2  0  0  0  0  0  0
   -2.2730   -7.0740    2.5020 O   0  0  0  0  0  0  0  0  0  0  0  0
   -2.0340   -8.0340    2.4550 H   0  0  0  0  0  0  0  0  0  0  0  0
   -1.3960   -4.3050    2.4990 C   0  0  0  0  0  2  0  0  0  0  0  0
   -0.0100   -4.4900    2.3750 O   0  0  0  0  0  0  0  0  0  0  0  0
    0.4080   -4.0240    3.1430 H   0  0  0  0  0  0  0  0  0  0  0  0
  1  2  1  0  0  0  0
  1 11  1  0  0  0  0
  3  1  1  1  0  0  0
  3  9  1  0  0  0  0
  3  4  1  0  0  0  0
  4  6  1  0  0  0  0
  4  5  1  0  0  0  0
  5  7  1  6  0  0  0
  8  5  1  0  0  0  0
  8 10  1  0  0  0  0
  9  8  1  0  0  0  0
 11 12  1  0  0  0  0
 12 13  1  0  0  0  0
 12 17  1  0  0  0  0
 14 12  1  0  0  0  0
 14 15  1  0  0  0  0
 16 15  1  0  0  0  0
 18 17  1  0  0  0  0
 18 19  1  0  0  0  0
M  END
>  <REMARK>
  7 active torsions:
  status: ('A' for Active; 'I' for Inactive)
    1  A    between atoms: C_5  and  N_6 
    2  A    between atoms: N_6  and  C_8 
    3  A    between atoms: C_8  and  C_9 
    4  A    between atoms: C_9  and  C_11 
    5  A    between atoms: C_9  and  C_13 
    6  A    between atoms: C_11  and  O_12 
    7  A    between atoms: C_13  and  O_14 

>  <TORSDO>
F 7

$$$$
C:\Users\siddh\.mgltools\PyRx\Ligands\ZINC000392498310_uff_E=403.00.pdbqt
 OpenBabel04182118313D

 24 25  0  0  1  0  0  0  0  0999 V2000
    0.1610   -2.9150    0.1800 C   0  0  0  0  0  0  0  0  0  0  0  0
   -0.4660   -2.3940    1.0840 O   0  0  0  0  0  0  0  0  0  0  0  0
    0.3770   -4.2590    0.2490 N   0  0  0  0  0  0  0  0  0  0  0  0
    0.9060   -4.7410   -0.4790 H   0  0  0  0  0  0  0  0  0  0  0  0
    0.6800   -2.0720   -0.9770 C   0  0  0  0  0  0  0  0  0  0  0  0
    0.5930   -0.6330   -1.0130 C   0  0  2  0  0  3  0  0  0  0  0  0
    1.0980    0.0340   -2.0930 N   0  0  0  0  0  0  0  0  0  0  0  0
    1.6780   -0.5890   -3.1460 C   0  0  0  0  0  3  0  0  0  0  0  0
    1.0350    1.0520   -2.1060 H   0  0  0  0  0  0  0  0  0  0  0  0
    1.7840   -1.9660   -3.1610 C   0  0  0  0  0  3  0  0  0  0  0  0
    1.2940   -2.7060   -2.0920 C   0  0  0  0  0  3  0  0  0  0  0  0
    0.0120    0.1480    0.0380 N   0  0  0  0  0  0  0  0  0  0  0  0
    0.0350    1.5890   -0.0050 C   0  0  0  0  0  1  0  0  0  0  0  0
   -0.4290   -0.2600    0.8610 H   0  0  0  0  0  0  0  0  0  0  0  0
   -0.1260   -5.0310    1.3740 C   0  0  0  0  0  2  0  0  0  0  0  0
    0.2070   -6.4860    1.2520 C   0  0  1  0  0  3  0  0  0  0  0  0
   -0.1530   -7.4130    2.1680 N   0  0  0  0  0  0  0  0  0  0  0  0
    0.3490   -8.5540    1.6400 C   0  0  0  0  0  0  0  0  0  0  0  0
   -0.6540   -7.2890    3.0060 H   0  0  0  0  0  0  0  0  0  0  0  0
    0.9790   -8.3280    0.4680 N   0  0  0  0  0  0  0  0  0  0  0  0
    0.2440   -9.6500    2.1600 O   0  0  0  0  0  0  0  0  0  0  0  0
    0.8910   -7.0350    0.2230 N   0  0  0  0  0  0  0  0  0  0  0  0
    1.4540   -9.0190   -0.1520 H   0  0  0  0  0  0  0  0  0  0  0  0
    1.2680   -6.5440   -0.5870 H   0  0  0  0  0  0  0  0  0  0  0  0
  1  3  1  0  0  0  0
  1  2  2  0  0  0  0
  3 15  1  0  0  0  0
  4  3  1  0  0  0  0
  5  1  1  0  0  0  0
  6  5  1  0  0  0  0
  6 12  1  1  0  0  0
  7  6  1  0  0  0  0
  8  7  1  0  0  0  0
  9  7  1  0  0  0  0
 10  8  2  0  0  0  0
 10 11  1  0  0  0  0
 11  5  2  0  0  0  0
 12 14  1  0  0  0  0
 13 12  1  0  0  0  0
 16 15  1  6  0  0  0
 16 17  1  0  0  0  0
 17 19  1  0  0  0  0
 18 21  2  0  0  0  0
 18 17  1  0  0  0  0
 20 18  1  0  0  0  0
 22 20  1  0  0  0  0
 22 16  1  0  0  0  0
 23 20  1  0  0  0  0
 24 22  1  0  0  0  0
M  END
>  <REMARK>
  4 active torsions:
  status: ('A' for Active; 'I' for Inactive)
    1  A    between atoms: N_2  and  C_3 
    2  A    between atoms: C_9  and  C_10 
       I    between atoms: C_10  and  N_12 
    3  A    between atoms: N_12  and  C_13 
    4  A    between atoms: C_13  and  C_14 

>  <TORSDO>
F 4

$$$$
C:\Users\siddh\.mgltools\PyRx\Ligands\ZINC000367929595_uff_E=439.38.pdbqt
 OpenBabel04182118313D

 19 20  0  0  1  0  0  0  0  0999 V2000
   -2.0050   -3.0280   -0.1170 N   0  0  0  0  0  0  0  0  0  0  0  0
   -1.9610   -4.3820   -0.0580 C   0  0  0  0  0  0  0  0  0  0  0  0
   -0.8850   -4.9600   -0.0470 O   0  0  0  0  0  0  0  0  0  0  0  0
   -2.8750   -2.5680   -0.1350 H   0  0  0  0  0  0  0  0  0  0  0  0
   -3.2480   -5.1680    0.0400 C   0  0  1  0  0  3  0  0  0  0  0  0
   -4.1230   -4.9800   -1.2180 C   0  0  1  0  0  3  0  0  0  0  0  0
   -4.0780   -6.3430   -1.8400 C   0  0  1  0  0  3  0  0  0  0  0  0
   -5.6330   -4.7090   -0.9740 C   0  0  0  0  0  2  0  0  0  0  0  0
   -3.9140   -7.2210   -0.6050 C   0  0  0  0  0  2  0  0  0  0  0  0
   -5.3920   -6.4560   -2.6120 C   0  0  0  0  0  2  0  0  0  0  0  0
   -2.9720   -6.5550    0.1950 O   0  0  0  0  0  0  0  0  0  0  0  0
   -6.3980   -5.8630   -1.6370 C   0  0  0  0  0  2  0  0  0  0  0  0
   -0.8690   -2.3070   -0.1510 O   0  0  0  0  0  0  0  0  0  0  0  0
   -1.2480   -0.9540   -0.0580 C   0  0  0  0  0  2  0  0  0  0  0  0
   -0.0190   -0.0810   -0.0320 C   0  0  0  0  0  0  0  0  0  0  0  0
   -0.1420    1.2670    0.0230 N   0  0  0  0  0  0  0  0  0  0  0  0
    0.6980    1.8650    0.0380 H   0  0  0  0  0  0  0  0  0  0  0  0
   -1.0720    1.7090    0.0460 H   0  0  0  0  0  0  0  0  0  0  0  0
    1.0930   -0.5850   -0.0630 O   0  0  0  0  0  0  0  0  0  0  0  0
  1  2  1  0  0  0  0
  2  3  2  0  0  0  0
  4  1  1  0  0  0  0
  5  2  1  6  0  0  0
  5 11  1  0  0  0  0
  6  8  1  1  0  0  0
  6  5  1  0  0  0  0
  7 10  1  1  0  0  0
  7  6  1  0  0  0  0
  7  9  1  0  0  0  0
  9 11  1  0  0  0  0
 10 12  1  0  0  0  0
 12  8  1  0  0  0  0
 13  1  1  0  0  0  0
 13 14  1  0  0  0  0
 14 15  1  0  0  0  0
 15 16  1  0  0  0  0
 16 17  1  0  0  0  0
 16 18  1  0  0  0  0
 19 15  2  0  0  0  0
M  END
>  <REMARK>
  4 active torsions:
  status: ('A' for Active; 'I' for Inactive)
       I    between atoms: N_1  and  C_2 
    1  A    between atoms: C_2  and  C_4 
    2  A    between atoms: C_4  and  O_5 
    3  A    between atoms: O_5  and  N_6 
       I    between atoms: N_6  and  C_7 
    4  A    between atoms: C_7  and  C_9 

>  <TORSDO>
F 4

$$$$
C:\Users\siddh\.mgltools\PyRx\Ligands\ZINC000367929583_uff_E=417.48.pdbqt
 OpenBabel04182118313D

 19 20  0  0  1  0  0  0  0  0999 V2000
   -2.0670   -2.9740    0.0110 N   0  0  0  0  0  0  0  0  0  0  0  0
   -1.9930   -4.3240    0.1080 C   0  0  0  0  0  0  0  0  0  0  0  0
   -0.9090   -4.8600    0.2780 O   0  0  0  0  0  0  0  0  0  0  0  0
   -2.9370   -2.5300   -0.1090 H   0  0  0  0  0  0  0  0  0  0  0  0
   -3.2320   -5.1810   -0.0230 C   0  0  1  0  0  3  0  0  0  0  0  0
   -3.9500   -5.0380   -1.3720 C   0  0  2  0  0  3  0  0  0  0  0  0
   -4.5350   -6.4310   -1.5960 C   0  0  2  0  0  3  0  0  0  0  0  0
   -3.0210   -4.8090   -2.5810 C   0  0  0  0  0  2  0  0  0  0  0  0
   -4.0910   -7.2030   -0.3620 C   0  0  0  0  0  2  0  0  0  0  0  0
   -3.8800   -6.9340   -2.8940 C   0  0  0  0  0  2  0  0  0  0  0  0
   -2.9210   -6.5590    0.0970 O   0  0  0  0  0  0  0  0  0  0  0  0
   -3.6570   -5.6490   -3.6680 C   0  0  0  0  0  2  0  0  0  0  0  0
   -0.9350   -2.2490    0.0790 O   0  0  0  0  0  0  0  0  0  0  0  0
   -1.2940   -0.8900    0.0370 C   0  0  0  0  0  2  0  0  0  0  0  0
   -0.0360   -0.0560    0.0160 C   0  0  0  0  0  0  0  0  0  0  0  0
   -0.1100    1.2950    0.0010 N   0  0  0  0  0  0  0  0  0  0  0  0
    0.7530    1.8600   -0.0110 H   0  0  0  0  0  0  0  0  0  0  0  0
   -1.0220    1.7710    0.0060 H   0  0  0  0  0  0  0  0  0  0  0  0
    1.0580   -0.6000    0.0130 O   0  0  0  0  0  0  0  0  0  0  0  0
  1 13  1  0  0  0  0
  1  2  1  0  0  0  0
  2  3  2  0  0  0  0
  4  1  1  0  0  0  0
  5 11  1  0  0  0  0
  5  2  1  6  0  0  0
  6  8  1  6  0  0  0
  6  5  1  0  0  0  0
  7 10  1  6  0  0  0
  7  6  1  0  0  0  0
  7  9  1  0  0  0  0
  9 11  1  0  0  0  0
 12 10  1  0  0  0  0
 12  8  1  0  0  0  0
 14 13  1  0  0  0  0
 15 14  1  0  0  0  0
 16 18  1  0  0  0  0
 16 15  1  0  0  0  0
 17 16  1  0  0  0  0
 19 15  2  0  0  0  0
M  END
>  <REMARK>
  4 active torsions:
  status: ('A' for Active; 'I' for Inactive)
       I    between atoms: N_1  and  C_2 
    1  A    between atoms: C_2  and  C_4 
    2  A    between atoms: C_4  and  O_5 
    3  A    between atoms: O_5  and  N_6 
       I    between atoms: N_6  and  C_7 
    4  A    between atoms: C_7  and  C_9 

>  <TORSDO>
F 4

$$$$
C:\Users\siddh\.mgltools\PyRx\Ligands\ZINC000342555594_uff_E=237.72.pdbqt
 OpenBabel04182118313D

 19 19  0  0  1  0  0  0  0  0999 V2000
    0.7070   -0.4690   -1.2140 N   0  0  0  0  0  0  0  0  0  0  0  0
    2.0960   -0.0980   -1.4770 C   0  0  0  0  0  1  0  0  0  0  0  0
    0.0300   -1.2800   -2.1010 C   0  0  0  0  0  0  0  0  0  0  0  0
   -1.1280   -1.6010   -1.8800 O   0  0  0  0  0  0  0  0  0  0  0  0
    0.6870   -1.7870   -3.3680 C   0  0  0  0  0  2  0  0  0  0  0  0
   -0.2260   -2.5830   -4.1000 O   0  0  0  0  0  0  0  0  0  0  0  0
    0.3710   -2.9850   -5.3140 C   0  0  0  0  0  2  0  0  0  0  0  0
   -0.5640   -3.9470   -6.0560 C   0  0  2  0  0  3  0  0  0  0  0  0
   -0.8470   -5.2500   -5.3200 C   0  0  0  0  0  2  0  0  0  0  0  0
   -1.2650   -6.1980   -6.2870 O   0  0  0  0  0  0  0  0  0  0  0  0
   -0.9560   -5.6410   -7.5520 C   0  0  0  0  0  2  0  0  0  0  0  0
    0.0190   -4.5040   -7.3180 C   0  0  0  0  0  2  0  0  0  0  0  0
    0.0370    0.0250    0.0040 C   0  0  2  0  0  3  0  0  0  0  0  0
   -0.0490    1.5580    0.0030 C   0  0  0  0  0  1  0  0  0  0  0  0
    0.7170   -0.4780    1.2580 C   0  0  0  0  0  3  0  0  0  0  0  0
    0.2130   -0.1560    2.4650 O   0  0  0  0  0  0  0  0  0  0  0  0
    0.6300   -0.4650    3.2450 H   0  0  0  0  0  0  0  0  0  0  0  0
    1.8030   -1.2730    1.1890 O   0  0  0  0  0  0  0  0  0  0  0  0
    2.1630   -1.5030    0.3550 H   0  0  0  0  0  0  0  0  0  0  0  0
  1 13  1  0  0  0  0
  2  1  1  0  0  0  0
  3  4  2  0  0  0  0
  3  1  1  0  0  0  0
  5  3  1  0  0  0  0
  6  5  1  0  0  0  0
  7  6  1  0  0  0  0
  8  9  1  0  0  0  0
  8  7  1  1  0  0  0
 10  9  1  0  0  0  0
 11 12  1  0  0  0  0
 11 10  1  0  0  0  0
 12  8  1  0  0  0  0
 13 14  1  1  0  0  0
 13 15  1  0  0  0  0
 15 16  1  0  0  0  0
 16 17  1  0  0  0  0
 18 15  1  0  0  0  0
 19 18  1  0  0  0  0
M  END
>  <REMARK>
  8 active torsions:
  status: ('A' for Active; 'I' for Inactive)
    1  A    between atoms: C_2  and  C_3 
    2  A    between atoms: C_2  and  N_6 
    3  A    between atoms: C_3  and  O_4 
    4  A    between atoms: C_3  and  O_5 
       I    between atoms: N_6  and  C_8 
    5  A    between atoms: C_8  and  C_10 
    6  A    between atoms: C_10  and  O_11 
    7  A    between atoms: O_11  and  C_12 
    8  A    between atoms: C_12  and  C_13 

>  <TORSDO>
F 8

$$$$
C:\Users\siddh\.mgltools\PyRx\Ligands\ZINC000331316425_uff_E=787.42.pdbqt
 OpenBabel04182118313D

 18 18  0  0  1  0  0  0  0  0999 V2000
   -1.7980   -2.8820   -0.0040 N   0  0  0  0  0  0  0  0  0  0  0  0
   -2.7750   -2.5870    0.0040 H   0  0  0  0  0  0  0  0  0  0  0  0
   -1.5440   -4.2230   -0.0130 C   0  0  0  0  0  0  0  0  0  0  0  0
   -0.3920   -4.6400   -0.0220 O   0  0  0  0  0  0  0  0  0  0  0  0
   -0.8940   -1.9540   -0.0040 C   0  0  2  0  0  3  0  0  0  0  0  0
   -1.1750   -0.6290    0.0050 N   0  0  0  0  0  0  0  0  0  0  0  0
   -0.0140    0.1410    0.0020 C   0  0  2  0  0  3  0  0  0  0  0  0
   -2.1190   -0.2420    0.0130 H   0  0  0  0  0  0  0  0  0  0  0  0
   -0.0600    1.6290    0.0110 C   0  0  0  0  0  1  0  0  0  0  0  0
    1.1830   -0.5320   -0.0100 N   0  0  0  0  0  0  0  0  0  0  0  0
    0.7400   -2.1050   -0.0160 S   0  0  0  0  0  0  0  0  0  0  0  0
    2.0930   -0.1560   -0.0140 H   0  0  0  0  0  0  0  0  0  0  0  0
   -2.6900   -5.2140   -0.0130 C   0  0  0  0  0  2  0  0  0  0  0  0
   -2.1370   -6.6450   -0.0240 C   0  0  0  0  0  2  0  0  0  0  0  0
   -3.3800   -7.9580   -0.0250 S   0  0  0  0  0  0  0  0  0  0  0  0
   -2.7940   -9.6730   -0.0370 C   0  0  0  0  0  1  0  0  0  0  0  0
   -4.3350   -7.7670    1.1640 O   0  0  0  0  0  0  0  0  0  0  0  0
   -4.3460   -7.7540   -1.2020 O   0  0  0  0  0  0  0  0  0  0  0  0
  1  2  1  0  0  0  0
  3 13  1  0  0  0  0
  3  1  1  0  0  0  0
  4  3  2  0  0  0  0
  5  1  1  6  0  0  0
  5  6  1  0  0  0  0
  6  8  1  0  0  0  0
  7  6  1  0  0  0  0
  7  9  1  6  0  0  0
 10  7  1  0  0  0  0
 11 10  1  0  0  0  0
 11  5  1  0  0  0  0
 12 10  1  0  0  0  0
 14 13  1  0  0  0  0
 15 14  1  0  0  0  0
 15 17  2  0  0  0  0
 16 15  1  0  0  0  0
 18 15  2  0  0  0  0
M  END
>  <REMARK>
  4 active torsions:
  status: ('A' for Active; 'I' for Inactive)
    1  A    between atoms: C_5  and  N_6 
       I    between atoms: N_6  and  C_8 
    2  A    between atoms: C_8  and  C_10 
    3  A    between atoms: C_10  and  C_11 
    4  A    between atoms: C_11  and  S_12 

>  <TORSDO>
F 4

$$$$
C:\Users\siddh\.mgltools\PyRx\Ligands\ZINC000330864020_uff_E=419.64.pdbqt
 OpenBabel04182118313D

 17 17  0  0  1  0  0  0  0  0999 V2000
    1.1350   -4.1790    1.8060 C   0  0  1  0  0  3  0  0  0  0  0  0
    1.7040   -4.9580    2.7560 N   0  0  0  0  0  0  0  0  0  0  0  0
    2.1810   -4.5970    3.5820 H   0  0  0  0  0  0  0  0  0  0  0  0
    1.5570   -6.3140    2.4670 C   0  0  2  0  0  3  0  0  0  0  0  0
    0.8870   -6.6360    1.3130 N   0  0  0  0  0  0  0  0  0  0  0  0
    0.4910   -5.1810    0.6770 S   0  0  0  0  0  0  0  0  0  0  0  0
    0.6900   -7.5310    0.9530 H   0  0  0  0  0  0  0  0  0  0  0  0
    1.1350   -2.8860    1.8440 N   0  0  0  0  0  0  0  0  0  0  0  0
    0.5710   -2.0670    0.9080 C   0  0  0  0  0  0  0  0  0  0  0  0
    0.0020   -2.5300   -0.0720 O   0  0  0  0  0  0  0  0  0  0  0  0
    1.5950   -2.4410    2.6390 H   0  0  0  0  0  0  0  0  0  0  0  0
    0.6420   -0.5740    1.0700 C   0  0  0  0  0  2  0  0  0  0  0  0
   -0.0170    0.0210   -0.0300 O   0  0  0  0  0  0  0  0  0  0  0  0
    0.0190    1.4220    0.0710 C   0  0  0  0  0  1  0  0  0  0  0  0
    2.0980   -7.3780    3.3640 C   0  0  0  0  0  2  0  0  0  0  0  0
    2.7330   -6.7730    4.4690 O   0  0  0  0  0  0  0  0  0  0  0  0
    3.2450   -7.7680    5.3210 C   0  0  0  0  0  1  0  0  0  0  0  0
  1  8  1  1  0  0  0
  1  2  1  0  0  0  0
  2  3  1  0  0  0  0
  4  2  1  0  0  0  0
  4 15  1  1  0  0  0
  5  4  1  0  0  0  0
  6  5  1  0  0  0  0
  6  1  1  0  0  0  0
  7  5  1  0  0  0  0
  8 11  1  0  0  0  0
  9 12  1  0  0  0  0
  9  8  1  0  0  0  0
 10  9  2  0  0  0  0
 13 14  1  0  0  0  0
 13 12  1  0  0  0  0
 15 16  1  0  0  0  0
 16 17  1  0  0  0  0
M  END
>  <REMARK>
  5 active torsions:
  status: ('A' for Active; 'I' for Inactive)
    1  A    between atoms: O_2  and  C_3 
    2  A    between atoms: C_3  and  C_4 
       I    between atoms: C_4  and  N_6 
    3  A    between atoms: N_6  and  C_8 
    4  A    between atoms: C_11  and  C_12 
    5  A    between atoms: C_12  and  O_13 

>  <TORSDO>
F 5

$$$$
C:\Users\siddh\.mgltools\PyRx\Ligands\ZINC000307570411_uff_E=448.78.pdbqt
 OpenBabel04182118313D

 19 20  0  0  1  0  0  0  0  0999 V2000
   -1.3220    1.9530   -0.0380 C   0  0  0  0  0  0  0  0  0  0  0  0
   -1.5350    3.2930    0.1890 C   0  0  0  0  0  3  0  0  0  0  0  0
   -2.8320    3.4860    0.2320 O   0  0  0  0  0  0  0  0  0  0  0  0
   -3.4120    2.3230    0.0210 C   0  0  1  0  0  3  0  0  0  0  0  0
   -2.5120    1.3350   -0.1570 N   0  0  0  0  0  0  0  0  0  0  0  0
   -2.6910    0.3480   -0.3390 H   0  0  0  0  0  0  0  0  0  0  0  0
   -4.8940    2.1000    0.0220 C   0  0  0  0  0  2  0  0  0  0  0  0
   -5.4110    2.1600    1.3940 N   0  0  0  0  0  0  0  0  0  0  0  0
   -6.7540    1.5860    1.5820 C   0  0  0  0  0  2  0  0  0  0  0  0
   -7.4390    2.4570    2.6420 C   0  0  2  0  0  3  0  0  0  0  0  0
   -6.2640    3.1670    3.2940 C   0  0  0  0  0  2  0  0  0  0  0  0
   -5.4190    3.4560    2.0680 C   0  0  0  0  0  2  0  0  0  0  0  0
   -8.2050    1.6890    3.5330 O   0  0  0  0  0  0  0  0  0  0  0  0
   -8.4680    2.2860    4.2800 H   0  0  0  0  0  0  0  0  0  0  0  0
   -0.0260    1.2660   -0.1160 C   0  0  0  0  0  3  0  0  0  0  0  0
    0.0210   -0.0700   -0.2770 O   0  0  0  0  0  0  0  0  0  0  0  0
    0.1070   -0.9540   -0.5760 H   0  0  0  0  0  0  0  0  0  0  0  0
    1.1200    1.9640    0.0010 O   0  0  0  0  0  0  0  0  0  0  0  0
    1.0930    2.8940    0.1140 H   0  0  0  0  0  0  0  0  0  0  0  0
  1  2  2  0  0  0  0
  2  3  1  0  0  0  0
  4  7  1  1  0  0  0
  4  3  1  0  0  0  0
  5  1  1  0  0  0  0
  5  4  1  0  0  0  0
  6  5  1  0  0  0  0
  7  8  1  0  0  0  0
  8  9  1  0  0  0  0
  8 12  1  0  0  0  0
  9 10  1  0  0  0  0
 10 11  1  0  0  0  0
 10 13  1  1  0  0  0
 12 11  1  0  0  0  0
 13 14  1  0  0  0  0
 15  1  1  0  0  0  0
 15 18  1  0  0  0  0
 16 15  1  0  0  0  0
 17 16  1  0  0  0  0
 18 19  1  0  0  0  0
M  END
>  <REMARK>
  6 active torsions:
  status: ('A' for Active; 'I' for Inactive)
    1  A    between atoms: O_1  and  C_2 
    2  A    between atoms: C_2  and  O_3 
    3  A    between atoms: C_2  and  C_4 
    4  A    between atoms: C_7  and  C_8 
    5  A    between atoms: C_8  and  N_9 
    6  A    between atoms: C_12  and  O_13 

>  <TORSDO>
F 6

$$$$
C:\Users\siddh\.mgltools\PyRx\Ligands\ZINC000299751834_uff_E=275.61.pdbqt
 OpenBabel04182118313D

 19 19  0  0  0  0  0  0  0  0999 V2000
    0.0290    1.4680    0.0630 C   0  0  0  0  0  1  0  0  0  0  0  0
    0.0130    0.0120    0.0410 N   0  0  0  0  0  0  0  0  0  0  0  0
    0.0050   -0.6720   -1.1520 C   0  0  0  0  0  0  0  0  0  0  0  0
   -0.0060   -1.8970   -1.1530 O   0  0  0  0  0  0  0  0  0  0  0  0
    0.0090    0.0680   -2.4780 C   0  0  0  0  0  2  0  0  0  0  0  0
   -0.0360   -0.8530   -3.7030 C   0  0  0  0  0  2  0  0  0  0  0  0
   -0.0720   -0.0450   -4.9090 N   0  0  0  0  0  0  0  0  0  0  0  0
    1.0200    0.3520   -5.5880 C   0  0  0  0  0  0  0  0  0  0  0  0
    0.6870    0.9810   -6.8940 C   0  0  0  0  0  2  0  0  0  0  0  0
    2.1580    0.1010   -5.2270 O   0  0  0  0  0  0  0  0  0  0  0  0
   -0.8050    1.2690   -6.6580 C   0  0  0  0  0  2  0  0  0  0  0  0
   -1.2720    0.1990   -5.6590 C   0  0  0  0  0  2  0  0  0  0  0  0
    0.0150   -0.7130    1.3090 C   0  0  0  0  0  2  0  0  0  0  0  0
   -1.4140   -1.0640    1.7410 C   0  0  0  0  0  2  0  0  0  0  0  0
   -1.4500   -1.8060    3.0510 C   0  0  0  0  0  3  0  0  0  0  0  0
   -0.3130   -2.1170    3.7060 O   0  0  0  0  0  0  0  0  0  0  0  0
   -0.3540   -2.5790    4.5200 H   0  0  0  0  0  0  0  0  0  0  0  0
   -2.6360   -2.1630    3.5780 O   0  0  0  0  0  0  0  0  0  0  0  0
   -3.4310   -1.9510    3.1290 H   0  0  0  0  0  0  0  0  0  0  0  0
  2  1  1  0  0  0  0
  2 13  1  0  0  0  0
  3  2  1  0  0  0  0
  4  3  2  0  0  0  0
  5  3  1  0  0  0  0
  6  5  1  0  0  0  0
  7  6  1  0  0  0  0
  8 10  2  0  0  0  0
  8  7  1  0  0  0  0
  9 11  1  0  0  0  0
  9  8  1  0  0  0  0
 11 12  1  0  0  0  0
 12  7  1  0  0  0  0
 13 14  1  0  0  0  0
 14 15  1  0  0  0  0
 15 18  1  0  0  0  0
 15 16  1  0  0  0  0
 16 17  1  0  0  0  0
 19 18  1  0  0  0  0
M  END
>  <REMARK>
  8 active torsions:
  status: ('A' for Active; 'I' for Inactive)
    1  A    between atoms: N_2  and  C_3 
       I    between atoms: N_2  and  C_8 
    2  A    between atoms: C_3  and  C_4 
    3  A    between atoms: C_4  and  C_5 
    4  A    between atoms: C_5  and  O_6 
    5  A    between atoms: C_5  and  O_7 
    6  A    between atoms: C_8  and  C_10 
    7  A    between atoms: C_10  and  C_11 
    8  A    between atoms: C_11  and  N_12 

>  <TORSDO>
F 8

$$$$
C:\Users\siddh\.mgltools\PyRx\Ligands\ZINC000299750479_uff_E=1471.68.pdbqt
 OpenBabel04182118313D

 19 20  0  0  1  0  0  0  0  0999 V2000
   -2.8740   -5.5070    0.1330 C   0  0  0  0  0  0  0  0  0  0  0  0
   -1.7480   -5.9750    0.2380 O   0  0  0  0  0  0  0  0  0  0  0  0
   -3.6860   -5.3780    1.2480 N   0  0  0  0  0  0  0  0  0  0  0  0
   -5.0360   -4.8250    1.1380 C   0  0  0  0  0  2  0  0  0  0  0  0
   -5.1650   -3.6770    2.1460 C   0  0  0  0  0  2  0  0  0  0  0  0
   -4.9180   -4.1530    3.4570 O   0  0  0  0  0  0  0  0  0  0  0  0
   -3.5750   -4.5900    3.5650 C   0  0  0  0  0  2  0  0  0  0  0  0
   -3.2990   -5.7760    2.6160 C   0  0  2  0  0  3  0  0  0  0  0  0
   -3.3600   -5.1180   -1.2570 C   0  0  1  0  0  3  0  0  0  0  0  0
   -2.2670   -5.3160   -2.3160 C   0  0  1  0  0  3  0  0  0  0  0  0
   -3.4640   -6.2490   -2.2770 C   0  0  0  0  0  2  0  0  0  0  0  0
   -2.3990   -4.5040   -3.4620 O   0  0  0  0  0  0  0  0  0  0  0  0
   -1.1220   -4.2880   -4.0160 C   0  0  0  0  0  2  0  0  0  0  0  0
   -1.2280   -3.2590   -5.1290 C   0  0  0  0  0  1  0  0  0  0  0  0
   -1.8690   -6.2290    2.8210 C   0  0  0  0  0  3  0  0  0  0  0  0
   -1.6120   -7.4930    3.2060 O   0  0  0  0  0  0  0  0  0  0  0  0
   -0.7260   -7.7730    3.3330 H   0  0  0  0  0  0  0  0  0  0  0  0
   -0.8480   -5.3640    2.6510 O   0  0  0  0  0  0  0  0  0  0  0  0
   -1.0200   -4.4830    2.3830 H   0  0  0  0  0  0  0  0  0  0  0  0
  1  2  2  0  0  0  0
  1  3  1  0  0  0  0
  3  8  1  0  0  0  0
  4  3  1  0  0  0  0
  4  5  1  0  0  0  0
  5  6  1  0  0  0  0
  6  7  1  0  0  0  0
  8 15  1  6  0  0  0
  8  7  1  0  0  0  0
  9  1  1  1  0  0  0
 10 12  1  6  0  0  0
 10 11  1  0  0  0  0
 10  9  1  0  0  0  0
 11  9  1  0  0  0  0
 13 12  1  0  0  0  0
 14 13  1  0  0  0  0
 15 16  1  0  0  0  0
 16 17  1  0  0  0  0
 18 15  1  0  0  0  0
 19 18  1  0  0  0  0
M  END
>  <REMARK>
  6 active torsions:
  status: ('A' for Active; 'I' for Inactive)
    1  A    between atoms: C_2  and  O_3 
    2  A    between atoms: O_3  and  C_4 
    3  A    between atoms: C_6  and  C_7 
       I    between atoms: C_7  and  N_9 
    4  A    between atoms: C_14  and  C_15 
    5  A    between atoms: C_15  and  O_16 
    6  A    between atoms: C_15  and  O_17 

>  <TORSDO>
F 6

$$$$
C:\Users\siddh\.mgltools\PyRx\Ligands\ZINC000299750477_uff_E=1485.05.pdbqt
 OpenBabel04182118313D

 19 20  0  0  1  0  0  0  0  0999 V2000
   -3.2560   -1.2720    3.3890 C   0  0  0  0  0  0  0  0  0  0  0  0
   -3.1910   -0.0540    3.3140 O   0  0  0  0  0  0  0  0  0  0  0  0
   -4.4370   -1.9270    3.0750 N   0  0  0  0  0  0  0  0  0  0  0  0
   -4.5520   -3.3800    3.2130 C   0  0  0  0  0  2  0  0  0  0  0  0
   -5.1090   -3.9550    1.9060 C   0  0  0  0  0  2  0  0  0  0  0  0
   -6.3610   -3.3640    1.6080 O   0  0  0  0  0  0  0  0  0  0  0  0
   -6.1880   -1.9800    1.3590 C   0  0  0  0  0  2  0  0  0  0  0  0
   -5.6690   -1.2530    2.6180 C   0  0  2  0  0  3  0  0  0  0  0  0
   -2.0340   -2.0370    3.8970 C   0  0  2  0  0  3  0  0  0  0  0  0
   -0.8010   -1.1850    4.2640 C   0  0  1  0  0  3  0  0  0  0  0  0
   -0.7890   -2.0590    3.0210 C   0  0  0  0  0  2  0  0  0  0  0  0
   -0.7360    0.1520    3.8140 O   0  0  0  0  0  0  0  0  0  0  0  0
   -0.0360    0.9290    4.7580 C   0  0  0  0  0  2  0  0  0  0  0  0
   -0.2130    2.4020    4.4190 C   0  0  0  0  0  1  0  0  0  0  0  0
   -5.5640    0.2230    2.3010 C   0  0  0  0  0  3  0  0  0  0  0  0
   -6.2700    1.1190    3.0150 O   0  0  0  0  0  0  0  0  0  0  0  0
   -6.2040    2.0330    2.8180 H   0  0  0  0  0  0  0  0  0  0  0  0
   -4.7870    0.6480    1.2830 O   0  0  0  0  0  0  0  0  0  0  0  0
   -4.2930    0.0300    0.7810 H   0  0  0  0  0  0  0  0  0  0  0  0
  2  1  2  0  0  0  0
  3  4  1  0  0  0  0
  3  1  1  0  0  0  0
  5  4  1  0  0  0  0
  6  5  1  0  0  0  0
  7  6  1  0  0  0  0
  7  8  1  0  0  0  0
  8 15  1  6  0  0  0
  8  3  1  0  0  0  0
  9  1  1  6  0  0  0
  9 10  1  0  0  0  0
 10 12  1  6  0  0  0
 11  9  1  0  0  0  0
 11 10  1  0  0  0  0
 12 13  1  0  0  0  0
 14 13  1  0  0  0  0
 15 16  1  0  0  0  0
 17 16  1  0  0  0  0
 18 15  1  0  0  0  0
 19 18  1  0  0  0  0
M  END
>  <REMARK>
  6 active torsions:
  status: ('A' for Active; 'I' for Inactive)
    1  A    between atoms: C_2  and  O_3 
    2  A    between atoms: O_3  and  C_4 
    3  A    between atoms: C_6  and  C_7 
       I    between atoms: C_7  and  N_9 
    4  A    between atoms: C_14  and  C_15 
    5  A    between atoms: C_15  and  O_16 
    6  A    between atoms: C_15  and  O_17 

>  <TORSDO>
F 6

$$$$
C:\Users\siddh\.mgltools\PyRx\Ligands\ZINC000299749466_uff_E=1487.28.pdbqt
 OpenBabel04182118313D

 19 20  0  0  1  0  0  0  0  0999 V2000
   -1.3430    1.9170   -0.0030 C   0  0  1  0  0  3  0  0  0  0  0  0
   -1.7950    2.2860   -1.4320 C   0  0  0  0  0  2  0  0  0  0  0  0
   -3.0890    2.8610   -1.4240 O   0  0  0  0  0  0  0  0  0  0  0  0
   -4.0300    1.9110   -0.9570 C   0  0  0  0  0  2  0  0  0  0  0  0
   -3.7390    1.5560    0.5020 C   0  0  0  0  0  2  0  0  0  0  0  0
   -2.3720    1.0420    0.5940 N   0  0  0  0  0  0  0  0  0  0  0  0
   -2.0990   -0.1640    1.2200 C   0  0  0  0  0  0  0  0  0  0  0  0
   -0.9430   -0.5390    1.3610 O   0  0  0  0  0  0  0  0  0  0  0  0
    0.0610    1.3550   -0.0920 C   0  0  0  0  0  3  0  0  0  0  0  0
    0.3130    0.2700   -0.8540 O   0  0  0  0  0  0  0  0  0  0  0  0
    0.6040    0.1440   -1.7360 H   0  0  0  0  0  0  0  0  0  0  0  0
    1.0720    1.9520    0.5670 O   0  0  0  0  0  0  0  0  0  0  0  0
    0.9050    2.7060    1.0970 H   0  0  0  0  0  0  0  0  0  0  0  0
   -3.1860   -1.0530    1.7870 C   0  0  0  0  0  2  0  0  0  0  0  0
   -2.5740   -2.1560    2.4200 O   0  0  0  0  0  0  0  0  0  0  0  0
   -3.5250   -3.1260    2.7830 C   0  0  0  0  0  2  0  0  0  0  0  0
   -2.7510   -4.2710    3.4480 C   0  0  0  0  0  3  0  0  0  0  0  0
   -3.6900   -5.4300    3.7450 C   0  0  0  0  0  2  0  0  0  0  0  0
   -3.0720   -4.6490    4.8910 C   0  0  0  0  0  2  0  0  0  0  0  0
  1  9  1  6  0  0  0
  1  6  1  0  0  0  0
  2  3  1  0  0  0  0
  2  1  1  0  0  0  0
  3  4  1  0  0  0  0
  4  5  1  0  0  0  0
  5  6  1  0  0  0  0
  6  7  1  0  0  0  0
  7  8  2  0  0  0  0
  7 14  1  0  0  0  0
  9 12  1  0  0  0  0
 10  9  1  0  0  0  0
 11 10  1  0  0  0  0
 12 13  1  0  0  0  0
 14 15  1  0  0  0  0
 15 16  1  0  0  0  0
 16 17  1  0  0  0  0
 17 18  1  0  0  0  0
 17 19  1  0  0  0  0
 18 19  1  0  0  0  0
M  END
>  <REMARK>
  7 active torsions:
  status: ('A' for Active; 'I' for Inactive)
    1  A    between atoms: O_1  and  C_2 
    2  A    between atoms: C_2  and  O_3 
    3  A    between atoms: C_2  and  C_4 
       I    between atoms: N_9  and  C_10 
    4  A    between atoms: C_10  and  C_12 
    5  A    between atoms: C_12  and  O_13 
    6  A    between atoms: O_13  and  C_14 
    7  A    between atoms: C_14  and  C_15 

>  <TORSDO>
F 7

$$$$
C:\Users\siddh\.mgltools\PyRx\Ligands\ZINC000299748800_uff_E=268.58.pdbqt
 OpenBabel04182118313D

 19 19  0  0  1  0  0  0  0  0999 V2000
    0.7110   -0.4560   -1.1770 N   0  0  0  0  0  0  0  0  0  0  0  0
    2.1010   -0.0810   -1.4350 C   0  0  0  0  0  1  0  0  0  0  0  0
    0.0450   -1.2690   -2.0690 C   0  0  0  0  0  0  0  0  0  0  0  0
   -1.1190   -1.5860   -1.8620 O   0  0  0  0  0  0  0  0  0  0  0  0
    0.7320   -1.7800   -3.3230 C   0  0  0  0  0  2  0  0  0  0  0  0
   -0.1770   -2.6240   -4.2230 C   0  0  0  0  0  2  0  0  0  0  0  0
    0.5690   -3.0320   -5.3990 N   0  0  0  0  0  0  0  0  0  0  0  0
    1.2540   -4.1850   -5.4990 C   0  0  0  0  0  0  0  0  0  0  0  0
    1.7480   -4.4450   -6.8760 C   0  0  0  0  0  2  0  0  0  0  0  0
    1.3470   -4.9870   -4.5820 O   0  0  0  0  0  0  0  0  0  0  0  0
    1.5930   -3.0330   -7.4660 C   0  0  0  0  0  2  0  0  0  0  0  0
    0.4480   -2.3830   -6.6750 C   0  0  0  0  0  2  0  0  0  0  0  0
    0.0350    0.0380    0.0350 C   0  0  2  0  0  3  0  0  0  0  0  0
   -0.0520    1.5720    0.0270 C   0  0  0  0  0  1  0  0  0  0  0  0
    0.7120   -0.4610    1.2920 C   0  0  0  0  0  3  0  0  0  0  0  0
    0.2080   -0.1340    2.4970 O   0  0  0  0  0  0  0  0  0  0  0  0
    0.6240   -0.4410    3.2780 H   0  0  0  0  0  0  0  0  0  0  0  0
    1.7970   -1.2580    1.2260 O   0  0  0  0  0  0  0  0  0  0  0  0
    2.1560   -1.4920    0.3920 H   0  0  0  0  0  0  0  0  0  0  0  0
  1 13  1  0  0  0  0
  2  1  1  0  0  0  0
  3  4  2  0  0  0  0
  3  1  1  0  0  0  0
  5  3  1  0  0  0  0
  6  5  1  0  0  0  0
  7  6  1  0  0  0  0
  8  7  1  0  0  0  0
  8 10  2  0  0  0  0
  9  8  1  0  0  0  0
 11  9  1  0  0  0  0
 11 12  1  0  0  0  0
 12  7  1  0  0  0  0
 13 14  1  1  0  0  0
 13 15  1  0  0  0  0
 15 16  1  0  0  0  0
 16 17  1  0  0  0  0
 18 15  1  0  0  0  0
 19 18  1  0  0  0  0
M  END
>  <REMARK>
  7 active torsions:
  status: ('A' for Active; 'I' for Inactive)
    1  A    between atoms: C_2  and  C_3 
    2  A    between atoms: C_2  and  N_6 
    3  A    between atoms: C_3  and  O_4 
    4  A    between atoms: C_3  and  O_5 
       I    between atoms: N_6  and  C_8 
    5  A    between atoms: C_8  and  C_10 
    6  A    between atoms: C_10  and  C_11 
    7  A    between atoms: C_11  and  N_12 

>  <TORSDO>
F 7

$$$$
C:\Users\siddh\.mgltools\PyRx\Ligands\ZINC000299741986_uff_E=1445.34.pdbqt
 OpenBabel04182118313D

 19 19  0  0  1  0  0  0  0  0999 V2000
    0.1440   -3.7970    2.8510 C   0  0  0  0  0  0  0  0  0  0  0  0
   -0.4410   -4.3120    1.9080 O   0  0  0  0  0  0  0  0  0  0  0  0
    0.1870   -4.4390    4.0680 N   0  0  0  0  0  0  0  0  0  0  0  0
   -0.4740   -5.7330    4.2430 C   0  0  0  0  0  2  0  0  0  0  0  0
    0.4980   -6.8870    4.0050 C   0  0  0  0  0  2  0  0  0  0  0  0
    1.5400   -6.8240    4.9530 O   0  0  0  0  0  0  0  0  0  0  0  0
    2.4480   -7.8740    4.7230 C   0  0  0  0  0  1  0  0  0  0  0  0
    0.8240   -3.8190    5.2260 C   0  0  0  0  0  2  0  0  0  0  0  0
   -0.1030   -2.8410    5.8940 C   0  0  0  0  0  3  0  0  0  0  0  0
   -1.3540   -2.6500    5.4310 O   0  0  0  0  0  0  0  0  0  0  0  0
   -1.9230   -2.0380    5.8550 H   0  0  0  0  0  0  0  0  0  0  0  0
    0.3060   -2.1790    6.9920 O   0  0  0  0  0  0  0  0  0  0  0  0
    1.1750   -2.3060    7.3200 H   0  0  0  0  0  0  0  0  0  0  0  0
    0.8450   -2.4590    2.6540 C   0  0  2  0  0  3  0  0  0  0  0  0
    0.6370   -1.8960    1.2450 C   0  0  2  0  0  3  0  0  0  0  0  0
    1.9970   -2.4360    1.6550 C   0  0  0  0  0  2  0  0  0  0  0  0
    0.7550   -0.4920    1.1510 O   0  0  0  0  0  0  0  0  0  0  0  0
    0.0280   -0.0400    0.0330 C   0  0  0  0  0  2  0  0  0  0  0  0
    0.0000    1.4810    0.0370 C   0  0  0  0  0  1  0  0  0  0  0  0
  1  3  1  0  0  0  0
  2  1  2  0  0  0  0
  3  4  1  0  0  0  0
  3  8  1  0  0  0  0
  5  4  1  0  0  0  0
  5  6  1  0  0  0  0
  7  6  1  0  0  0  0
  8  9  1  0  0  0  0
  9 12  1  0  0  0  0
 10 11  1  0  0  0  0
 10  9  1  0  0  0  0
 12 13  1  0  0  0  0
 14  1  1  6  0  0  0
 15 17  1  1  0  0  0
 15 16  1  0  0  0  0
 15 14  1  0  0  0  0
 16 14  1  0  0  0  0
 18 19  1  0  0  0  0
 18 17  1  0  0  0  0
M  END
>  <REMARK>
  10 active torsions:
  status: ('A' for Active; 'I' for Inactive)
    1  A    between atoms: C_2  and  O_3 
    2  A    between atoms: O_3  and  C_4 
    3  A    between atoms: C_6  and  C_7 
       I    between atoms: C_7  and  N_9 
    4  A    between atoms: N_9  and  C_10 
    5  A    between atoms: N_9  and  C_14 
    6  A    between atoms: C_10  and  C_11 
    7  A    between atoms: C_11  and  O_12 
    8  A    between atoms: C_14  and  C_15 
    9  A    between atoms: C_15  and  O_16 
   10  A    between atoms: C_15  and  O_17 

>  <TORSDO>
F 10

$$$$
C:\Users\siddh\.mgltools\PyRx\Ligands\ZINC000269082916_uff_E=257.94.pdbqt
 OpenBabel04182118313D

 19 19  0  0  1  0  0  0  0  0999 V2000
   -1.1760   -2.7610   -0.6410 C   0  0  0  0  0  0  0  0  0  0  0  0
   -2.1260   -2.0530   -0.3370 O   0  0  0  0  0  0  0  0  0  0  0  0
   -1.2300   -4.1140   -0.3910 N   0  0  0  0  0  0  0  0  0  0  0  0
   -0.0930   -4.9800   -0.6590 C   0  0  0  0  0  1  0  0  0  0  0  0
    0.0340   -2.1000   -1.3080 C   0  0  2  0  0  3  0  0  0  0  0  0
   -0.0050   -0.6460   -1.2340 N   0  0  0  0  0  0  0  0  0  0  0  0
   -0.0800    0.0490   -0.0550 C   0  0  0  0  0  0  0  0  0  0  0  0
    0.0990   -0.0060   -2.5260 C   0  0  0  0  0  2  0  0  0  0  0  0
   -0.0760    1.5520   -0.0300 C   0  0  0  0  0  1  0  0  0  0  0  0
   -0.1460   -0.5540    1.0080 O   0  0  0  0  0  0  0  0  0  0  0  0
    0.6710   -1.1190   -3.3950 C   0  0  0  0  0  2  0  0  0  0  0  0
   -0.0120   -2.3500   -2.8300 C   0  0  0  0  0  2  0  0  0  0  0  0
   -2.4270   -4.6950    0.2180 C   0  0  0  0  0  2  0  0  0  0  0  0
   -3.4240   -5.1280   -0.8640 C   0  0  0  0  0  2  0  0  0  0  0  0
   -4.6790   -5.7250   -0.2860 C   0  0  0  0  0  3  0  0  0  0  0  0
   -4.8510   -5.8240    1.0480 O   0  0  0  0  0  0  0  0  0  0  0  0
   -5.6390   -6.1980    1.3920 H   0  0  0  0  0  0  0  0  0  0  0  0
   -5.6460   -6.1650   -1.1120 O   0  0  0  0  0  0  0  0  0  0  0  0
   -5.5340   -6.1010   -2.0400 H   0  0  0  0  0  0  0  0  0  0  0  0
  1  3  1  0  0  0  0
  1  2  2  0  0  0  0
  3 13  1  0  0  0  0
  4  3  1  0  0  0  0
  5  6  1  0  0  0  0
  5  1  1  1  0  0  0
  6  7  1  0  0  0  0
  7  9  1  0  0  0  0
  7 10  2  0  0  0  0
  8  6  1  0  0  0  0
 11 12  1  0  0  0  0
 11  8  1  0  0  0  0
 12  5  1  0  0  0  0
 14 15  1  0  0  0  0
 14 13  1  0  0  0  0
 15 16  1  0  0  0  0
 16 17  1  0  0  0  0
 18 15  1  0  0  0  0
 19 18  1  0  0  0  0
M  END
>  <REMARK>
  6 active torsions:
  status: ('A' for Active; 'I' for Inactive)
       I    between atoms: C_2  and  N_4 
    1  A    between atoms: C_8  and  C_9 
       I    between atoms: C_9  and  N_11 
    2  A    between atoms: N_11  and  C_13 
    3  A    between atoms: C_13  and  C_14 
    4  A    between atoms: C_14  and  C_15 
    5  A    between atoms: C_15  and  O_16 
    6  A    between atoms: C_15  and  O_17 

>  <TORSDO>
F 6

$$$$
C:\Users\siddh\.mgltools\PyRx\Ligands\ZINC000263618848_uff_E=343.03.pdbqt
 OpenBabel04182118313D

 20 21  0  0  1  0  0  0  0  0999 V2000
    0.6930   -2.0540   -1.1640 C   0  0  1  0  0  3  0  0  0  0  0  0
    0.2040   -2.8700   -0.2030 N   0  0  0  0  0  0  0  0  0  0  0  0
   -0.2330   -2.5790    0.6720 H   0  0  0  0  0  0  0  0  0  0  0  0
    0.3970   -4.1170   -0.6050 N   0  0  0  0  0  0  0  0  0  0  0  0
   -0.0100   -5.3220    0.1240 C   0  0  0  0  0  2  0  0  0  0  0  0
   -0.0320   -6.5550   -0.8190 C   0  0  0  0  0  2  0  0  0  0  0  0
    1.2570   -6.6480   -1.6670 C   0  0  2  0  0  3  0  0  0  0  0  0
    1.3880   -5.3650   -2.4690 C   0  0  0  0  0  0  0  0  0  0  0  0
    1.7840   -5.3570   -3.6250 O   0  0  0  0  0  0  0  0  0  0  0  0
    1.0200   -4.1170   -1.7940 C   0  0  0  0  0  0  0  0  0  0  0  0
    1.2200   -2.8170   -2.1960 C   0  0  0  0  0  3  0  0  0  0  0  0
    1.2930   -7.8830   -2.5410 C   0  0  0  0  0  3  0  0  0  0  0  0
    2.3500   -8.1080   -3.3470 O   0  0  0  0  0  0  0  0  0  0  0  0
    2.3720   -8.8720   -3.8880 H   0  0  0  0  0  0  0  0  0  0  0  0
    0.2840   -8.7770   -2.5120 O   0  0  0  0  0  0  0  0  0  0  0  0
   -0.4550   -8.6310   -1.9560 H   0  0  0  0  0  0  0  0  0  0  0  0
    0.6550   -0.5840   -1.1080 C   0  0  0  0  0  0  0  0  0  0  0  0
    1.1410    0.0690   -2.0220 O   0  0  0  0  0  0  0  0  0  0  0  0
    0.0690    0.0370   -0.0520 O   0  0  0  0  0  0  0  0  0  0  0  0
   -0.0250    1.4110    0.0520 C   0  0  0  0  0  1  0  0  0  0  0  0
  1 17  1  6  0  0  0
  1  2  1  0  0  0  0
  2  3  1  0  0  0  0
  4  2  1  0  0  0  0
  4  5  1  0  0  0  0
  6  5  1  0  0  0  0
  7 12  1  6  0  0  0
  7  6  1  0  0  0  0
  8 10  1  0  0  0  0
  8  7  1  0  0  0  0
  9  8  2  0  0  0  0
 10  4  1  0  0  0  0
 11 10  2  0  0  0  0
 11  1  1  0  0  0  0
 12 15  1  0  0  0  0
 13 12  1  0  0  0  0
 14 13  1  0  0  0  0
 15 16  1  0  0  0  0
 17 19  1  0  0  0  0
 18 17  2  0  0  0  0
 19 20  1  0  0  0  0
M  END
>  <REMARK>
  5 active torsions:
  status: ('A' for Active; 'I' for Inactive)
    1  A    between atoms: O_2  and  C_3 
    2  A    between atoms: C_3  and  C_5 
    3  A    between atoms: C_11  and  C_12 
    4  A    between atoms: C_12  and  O_13 
    5  A    between atoms: C_12  and  O_14 

>  <TORSDO>
F 5

$$$$
C:\Users\siddh\.mgltools\PyRx\Ligands\ZINC000263558397_uff_E=682.28.pdbqt
 OpenBabel04182118313D

 22 22  0  0  1  0  0  0  0  0999 V2000
   -2.7380   -0.4540   -0.0160 S   0  0  0  0  0  0  0  0  0  0  0  0
   -3.6180   -1.4150    0.7970 O   0  0  0  0  0  0  0  0  0  0  0  0
   -3.0150    0.8690    0.7150 O   0  0  0  0  0  0  0  0  0  0  0  0
   -0.9950   -0.8740    0.0320 C   0  0  0  0  0  0  0  0  0  0  0  0
    0.0810   -0.0140    0.0340 C   0  0  2  0  0  3  0  0  0  0  0  0
    0.0430    1.4780    0.0130 C   0  0  0  0  0  1  0  0  0  0  0  0
    1.1840   -0.7340    0.0470 O   0  0  0  0  0  0  0  0  0  0  0  0
    0.9120   -2.0080    0.0510 N   0  0  0  0  0  0  0  0  0  0  0  0
   -0.4300   -2.1280    0.0410 C   0  0  0  0  0  0  0  0  0  0  0  0
    1.5880   -2.7720    0.0610 H   0  0  0  0  0  0  0  0  0  0  0  0
   -1.1120   -3.3630    0.0190 N   0  0  0  0  0  0  0  0  0  0  0  0
   -2.1410   -3.3960   -0.0010 H   0  0  0  0  0  0  0  0  0  0  0  0
   -0.5820   -4.2460    0.0100 H   0  0  0  0  0  0  0  0  0  0  0  0
   -3.5590   -0.2670   -1.5780 N   0  0  0  0  0  0  0  0  0  0  0  0
   -3.2700    0.6290   -2.0340 H   0  0  0  0  0  0  0  0  0  0  0  0
   -3.3710   -1.4170   -2.4750 C   0  0  2  0  0  3  0  0  0  0  0  0
   -2.0230   -1.3690   -3.2110 C   0  0  0  0  0  1  0  0  0  0  0  0
   -4.4830   -1.4190   -3.4860 C   0  0  0  0  0  3  0  0  0  0  0  0
   -4.6930   -0.3410   -4.2670 O   0  0  0  0  0  0  0  0  0  0  0  0
   -5.3870   -0.3470   -4.8960 H   0  0  0  0  0  0  0  0  0  0  0  0
   -5.2750   -2.5000   -3.6150 O   0  0  0  0  0  0  0  0  0  0  0  0
   -5.1330   -3.2520   -3.0740 H   0  0  0  0  0  0  0  0  0  0  0  0
  1  4  1  0  0  0  0
  1  3  2  0  0  0  0
  1  2  2  0  0  0  0
  4  5  1  0  0  0  0
  4  9  2  0  0  0  0
  5  6  1  6  0  0  0
  5  7  1  0  0  0  0
  7  8  1  0  0  0  0
  8 10  1  0  0  0  0
  9  8  1  0  0  0  0
 11  9  1  0  0  0  0
 12 11  1  0  0  0  0
 13 11  1  0  0  0  0
 14  1  1  0  0  0  0
 15 14  1  0  0  0  0
 16 17  1  6  0  0  0
 16 14  1  0  0  0  0
 18 16  1  0  0  0  0
 19 18  1  0  0  0  0
 20 19  1  0  0  0  0
 21 18  1  0  0  0  0
 21 22  1  0  0  0  0
M  END
>  <REMARK>
  7 active torsions:
  status: ('A' for Active; 'I' for Inactive)
    1  A    between atoms: C_3  and  S_4 
    2  A    between atoms: S_4  and  N_7 
    3  A    between atoms: N_7  and  C_8 
    4  A    between atoms: C_8  and  C_10 
    5  A    between atoms: C_10  and  O_11 
    6  A    between atoms: C_10  and  O_12 
    7  A    between atoms: C_13  and  N_14 

>  <TORSDO>
F 7

$$$$
C:\Users\siddh\.mgltools\PyRx\Ligands\ZINC000263229402_uff_E=192.72.pdbqt
 OpenBabel04182118313D

 19 19  0  0  1  0  0  0  0  0999 V2000
    0.6690   -0.1160    1.3380 N   0  0  0  0  0  0  0  0  0  0  0  0
   -0.0790    0.4310    0.2050 C   0  0  0  0  0  1  0  0  0  0  0  0
    0.1310   -1.1970    2.0110 C   0  0  0  0  0  0  0  0  0  0  0  0
   -0.9510   -1.6440    1.6540 O   0  0  0  0  0  0  0  0  0  0  0  0
    0.8030   -1.8330    3.2290 C   0  0  2  0  0  3  0  0  0  0  0  0
    1.9690   -2.7550    2.8060 C   0  0  0  0  0  2  0  0  0  0  0  0
    2.4990   -3.6020    3.9450 C   0  0  0  0  0  0  0  0  0  0  0  0
    1.8430   -3.6890    5.1500 N   0  0  0  0  0  0  0  0  0  0  0  0
    3.5440   -4.2130    3.7730 O   0  0  0  0  0  0  0  0  0  0  0  0
    0.5370   -3.0730    5.3660 C   0  0  0  0  0  2  0  0  0  0  0  0
    2.4570   -4.4090    6.2550 C   0  0  0  0  0  1  0  0  0  0  0  0
   -0.1620   -2.6720    4.0600 C   0  0  0  0  0  2  0  0  0  0  0  0
    1.9340    0.5250    1.7390 C   0  0  1  0  0  3  0  0  0  0  0  0
    2.9500    0.4910    0.5880 C   0  0  0  0  0  1  0  0  0  0  0  0
    1.7090    1.9380    2.2270 C   0  0  0  0  0  3  0  0  0  0  0  0
    0.4690    2.4650    2.2790 O   0  0  0  0  0  0  0  0  0  0  0  0
    0.3450    3.3420    2.5840 H   0  0  0  0  0  0  0  0  0  0  0  0
    2.7540    2.6690    2.6610 O   0  0  0  0  0  0  0  0  0  0  0  0
    3.6200    2.3130    2.6290 H   0  0  0  0  0  0  0  0  0  0  0  0
  1 13  1  0  0  0  0
  1  3  1  0  0  0  0
  2  1  1  0  0  0  0
  4  3  2  0  0  0  0
  5  3  1  6  0  0  0
  5 12  1  0  0  0  0
  6  5  1  0  0  0  0
  6  7  1  0  0  0  0
  7  8  1  0  0  0  0
  8 10  1  0  0  0  0
  8 11  1  0  0  0  0
  9  7  2  0  0  0  0
 12 10  1  0  0  0  0
 13 14  1  6  0  0  0
 13 15  1  0  0  0  0
 15 16  1  0  0  0  0
 15 18  1  0  0  0  0
 16 17  1  0  0  0  0
 19 18  1  0  0  0  0
M  END
>  <REMARK>
  5 active torsions:
  status: ('A' for Active; 'I' for Inactive)
    1  A    between atoms: C_2  and  C_3 
    2  A    between atoms: C_2  and  N_6 
    3  A    between atoms: C_3  and  O_4 
    4  A    between atoms: C_3  and  O_5 
       I    between atoms: N_6  and  C_8 
    5  A    between atoms: C_8  and  C_10 

>  <TORSDO>
F 5

$$$$
C:\Users\siddh\.mgltools\PyRx\Ligands\ZINC000263229398_uff_E=190.73.pdbqt
 OpenBabel04182118313D

 19 19  0  0  1  0  0  0  0  0999 V2000
    0.7390   -0.6950   -1.0520 N   0  0  0  0  0  0  0  0  0  0  0  0
    0.0000   -0.3070    0.1500 C   0  0  0  0  0  1  0  0  0  0  0  0
    0.0150   -1.1940   -2.1190 C   0  0  0  0  0  0  0  0  0  0  0  0
   -1.1990   -1.3100   -2.0120 O   0  0  0  0  0  0  0  0  0  0  0  0
    0.6640   -1.6550   -3.4260 C   0  0  2  0  0  3  0  0  0  0  0  0
    1.0940   -0.4500   -4.2930 C   0  0  0  0  0  2  0  0  0  0  0  0
    1.5010   -0.8450   -5.6990 C   0  0  0  0  0  0  0  0  0  0  0  0
    1.2750   -2.1080   -6.1900 N   0  0  0  0  0  0  0  0  0  0  0  0
    2.0500   -0.0060   -6.3980 O   0  0  0  0  0  0  0  0  0  0  0  0
    0.5230   -3.1090   -5.4390 C   0  0  0  0  0  2  0  0  0  0  0  0
    1.7970   -2.4770   -7.4970 C   0  0  0  0  0  1  0  0  0  0  0  0
   -0.2750   -2.5100   -4.2730 C   0  0  0  0  0  2  0  0  0  0  0  0
    2.2110   -0.5920   -1.0640 C   0  0  2  0  0  3  0  0  0  0  0  0
    2.8360   -1.4980    0.0040 C   0  0  0  0  0  1  0  0  0  0  0  0
    2.6700    0.8400   -0.9060 C   0  0  0  0  0  3  0  0  0  0  0  0
    3.4130    1.4140   -1.8720 O   0  0  0  0  0  0  0  0  0  0  0  0
    3.6990    2.3010   -1.7780 H   0  0  0  0  0  0  0  0  0  0  0  0
    2.3660    1.5500    0.1980 O   0  0  0  0  0  0  0  0  0  0  0  0
    1.8500    1.1620    0.8770 H   0  0  0  0  0  0  0  0  0  0  0  0
  1  2  1  0  0  0  0
  3  4  2  0  0  0  0
  3  1  1  0  0  0  0
  5  3  1  1  0  0  0
  6  5  1  0  0  0  0
  7  6  1  0  0  0  0
  8  7  1  0  0  0  0
  8 10  1  0  0  0  0
  9  7  2  0  0  0  0
 10 12  1  0  0  0  0
 11  8  1  0  0  0  0
 12  5  1  0  0  0  0
 13  1  1  0  0  0  0
 13 15  1  0  0  0  0
 13 14  1  1  0  0  0
 15 18  1  0  0  0  0
 16 17  1  0  0  0  0
 16 15  1  0  0  0  0
 18 19  1  0  0  0  0
M  END
>  <REMARK>
  5 active torsions:
  status: ('A' for Active; 'I' for Inactive)
    1  A    between atoms: C_2  and  C_3 
    2  A    between atoms: C_2  and  N_6 
    3  A    between atoms: C_3  and  O_4 
    4  A    between atoms: C_3  and  O_5 
       I    between atoms: N_6  and  C_8 
    5  A    between atoms: C_8  and  C_10 

>  <TORSDO>
F 5

$$$$
C:\Users\siddh\.mgltools\PyRx\Ligands\ZINC000262973870_uff_E=405.43.pdbqt
 OpenBabel04182118313D

 21 22  0  0  1  0  0  0  0  0999 V2000
   -2.3970    0.9700    0.0060 N   0  0  0  0  0  0  0  0  0  0  0  0
   -3.3310    0.9900    0.9740 C   0  0  0  0  0  2  0  0  0  0  0  0
   -4.2220   -0.0300    0.7440 C   0  0  0  0  0  3  0  0  0  0  0  0
   -3.7620   -0.6500   -0.4140 C   0  0  0  0  0  0  0  0  0  0  0  0
   -2.6500   -0.0170   -0.8430 N   0  0  0  0  0  0  0  0  0  0  0  0
   -2.1030   -0.2560   -1.6700 H   0  0  0  0  0  0  0  0  0  0  0  0
   -4.3420   -1.7620   -1.1080 N   0  0  0  0  0  0  0  0  0  0  0  0
   -5.4710   -2.4140   -0.6980 C   0  0  0  0  0  0  0  0  0  0  0  0
   -6.0320   -2.0960    0.3390 O   0  0  0  0  0  0  0  0  0  0  0  0
   -3.8890   -2.0670   -1.9830 H   0  0  0  0  0  0  0  0  0  0  0  0
   -6.0630   -3.5330   -1.5320 C   0  0  2  0  0  3  0  0  0  0  0  0
   -6.5070   -3.1020   -2.9240 C   0  0  0  0  0  2  0  0  0  0  0  0
   -7.4550   -4.0520   -3.3790 O   0  0  0  0  0  0  0  0  0  0  0  0
   -7.8470   -4.8040   -2.2440 C   0  0  0  0  0  2  0  0  0  0  0  0
   -7.3800   -4.0460   -1.0210 C   0  0  0  0  0  2  0  0  0  0  0  0
   -1.2780    1.9030   -0.1130 C   0  0  0  0  0  2  0  0  0  0  0  0
    0.0460    1.1990   -0.0220 C   0  0  0  0  0  3  0  0  0  0  0  0
    0.1100   -0.1360    0.1440 O   0  0  0  0  0  0  0  0  0  0  0  0
    0.2290   -1.0140    0.4510 H   0  0  0  0  0  0  0  0  0  0  0  0
    1.1840    1.9150   -0.0970 O   0  0  0  0  0  0  0  0  0  0  0  0
    1.1460    2.8440   -0.2120 H   0  0  0  0  0  0  0  0  0  0  0  0
  1  2  1  0  0  0  0
  3  2  1  0  0  0  0
  4  3  2  0  0  0  0
  5  4  1  0  0  0  0
  5  1  1  0  0  0  0
  6  5  1  0  0  0  0
  7  8  1  0  0  0  0
  7  4  1  0  0  0  0
  8  9  2  0  0  0  0
 10  7  1  0  0  0  0
 11 15  1  0  0  0  0
 11  8  1  1  0  0  0
 12 11  1  0  0  0  0
 13 12  1  0  0  0  0
 13 14  1  0  0  0  0
 14 15  1  0  0  0  0
 16 17  1  0  0  0  0
 16  1  1  0  0  0  0
 17 18  1  0  0  0  0
 18 19  1  0  0  0  0
 20 17  1  0  0  0  0
 21 20  1  0  0  0  0
M  END
>  <REMARK>
  6 active torsions:
  status: ('A' for Active; 'I' for Inactive)
    1  A    between atoms: O_1  and  C_2 
    2  A    between atoms: C_2  and  O_3 
    3  A    between atoms: C_2  and  C_4 
    4  A    between atoms: C_4  and  N_5 
    5  A    between atoms: C_8  and  N_9 
       I    between atoms: N_9  and  C_10 
    6  A    between atoms: C_10  and  C_12 

>  <TORSDO>
F 6

$$$$
C:\Users\siddh\.mgltools\PyRx\Ligands\ZINC000262921627_uff_E=1442.82.pdbqt
 OpenBabel04182118313D

 19 20  0  0  1  0  0  0  0  0999 V2000
    0.0280   -0.1010   -0.0320 O   0  0  0  0  0  0  0  0  0  0  0  0
   -0.0370    1.2450   -0.0130 C   0  0  0  0  0  3  0  0  0  0  0  0
    0.1510   -1.0290   -0.0700 H   0  0  0  0  0  0  0  0  0  0  0  0
    1.1020    1.9640   -0.0350 O   0  0  0  0  0  0  0  0  0  0  0  0
    1.0650    2.9000   -0.0210 H   0  0  0  0  0  0  0  0  0  0  0  0
   -1.3690    1.9440    0.0320 C   0  0  1  0  0  3  0  0  0  0  0  0
   -2.4100    0.9750    0.0090 O   0  0  0  0  0  0  0  0  0  0  0  0
   -3.6790    1.6110   -0.0230 C   0  0  0  0  0  2  0  0  0  0  0  0
   -3.9020    2.4200    1.2600 C   0  0  0  0  0  2  0  0  0  0  0  0
   -2.8070    3.3710    1.3740 N   0  0  0  0  0  0  0  0  0  0  0  0
   -1.4680    2.7990    1.3120 C   0  0  0  0  0  2  0  0  0  0  0  0
   -3.0030    4.7280    1.5000 C   0  0  0  0  0  0  0  0  0  0  0  0
   -2.0380    5.4780    1.5730 O   0  0  0  0  0  0  0  0  0  0  0  0
   -4.3900    5.3360    1.5720 C   0  0  0  0  0  2  0  0  0  0  0  0
   -4.2810    6.7380    1.7050 O   0  0  0  0  0  0  0  0  0  0  0  0
   -5.5530    7.3150    1.9050 C   0  0  0  0  0  2  0  0  0  0  0  0
   -5.3460    8.8280    2.0490 C   0  0  0  0  0  3  0  0  0  0  0  0
   -6.6610    9.4970    2.4350 C   0  0  0  0  0  2  0  0  0  0  0  0
   -6.0490    9.7700    1.0740 C   0  0  0  0  0  2  0  0  0  0  0  0
  1  2  1  0  0  0  0
  3  1  1  0  0  0  0
  4  5  1  0  0  0  0
  4  2  1  0  0  0  0
  6  2  1  1  0  0  0
  6 11  1  0  0  0  0
  7  6  1  0  0  0  0
  8  7  1  0  0  0  0
  8  9  1  0  0  0  0
  9 10  1  0  0  0  0
 10 12  1  0  0  0  0
 11 10  1  0  0  0  0
 12 14  1  0  0  0  0
 12 13  2  0  0  0  0
 14 15  1  0  0  0  0
 15 16  1  0  0  0  0
 16 17  1  0  0  0  0
 17 18  1  0  0  0  0
 19 17  1  0  0  0  0
 19 18  1  0  0  0  0
M  END
>  <REMARK>
  6 active torsions:
  status: ('A' for Active; 'I' for Inactive)
    1  A    between atoms: C_2  and  O_3 
    2  A    between atoms: C_2  and  C_4 
       I    between atoms: N_6  and  C_7 
    3  A    between atoms: C_7  and  C_9 
    4  A    between atoms: C_9  and  O_10 
    5  A    between atoms: O_10  and  C_11 
    6  A    between atoms: C_11  and  C_12 

>  <TORSDO>
F 6

$$$$
C:\Users\siddh\.mgltools\PyRx\Ligands\ZINC000262755539_uff_E=377.26.pdbqt
 OpenBabel04182118313D

 20 21  0  0  1  0  0  0  0  0999 V2000
   -1.3470    1.9060    0.0980 C   0  0  1  0  0  3  0  0  0  0  0  0
   -2.3320    1.1990    1.0200 C   0  0  0  0  0  2  0  0  0  0  0  0
   -3.3640    2.3050    1.2150 C   0  0  0  0  0  2  0  0  0  0  0  0
   -2.4960    3.5280    1.5430 C   0  0  2  0  0  3  0  0  0  0  0  0
   -1.1680    3.2680    0.7790 C   0  0  0  0  0  2  0  0  0  0  0  0
   -2.2620    3.6000    2.9880 N   0  0  0  0  0  0  0  0  0  0  0  0
   -3.2020    4.0950    3.8450 C   0  0  0  0  0  0  0  0  0  0  0  0
   -4.2800    4.4820    3.4180 O   0  0  0  0  0  0  0  0  0  0  0  0
   -1.3530    3.3120    3.3730 H   0  0  0  0  0  0  0  0  0  0  0  0
   -2.9050    4.1950    5.3300 C   0  0  2  0  0  3  0  0  0  0  0  0
   -4.0190    4.7740    5.9940 O   0  0  0  0  0  0  0  0  0  0  0  0
   -3.7490    4.8910    7.3780 C   0  0  0  0  0  2  0  0  0  0  0  0
   -2.4960    5.7470    7.6070 C   0  0  0  0  0  2  0  0  0  0  0  0
   -1.3830    5.1560    6.9700 O   0  0  0  0  0  0  0  0  0  0  0  0
   -1.6430    5.0570    5.5840 C   0  0  0  0  0  2  0  0  0  0  0  0
   -0.0630    1.1530   -0.1500 C   0  0  0  0  0  3  0  0  0  0  0  0
   -0.1060   -0.0920   -0.6590 O   0  0  0  0  0  0  0  0  0  0  0  0
   -0.1690   -0.6210   -1.4300 H   0  0  0  0  0  0  0  0  0  0  0  0
    1.1310    1.7170    0.1230 O   0  0  0  0  0  0  0  0  0  0  0  0
    1.1700    2.5830    0.4780 H   0  0  0  0  0  0  0  0  0  0  0  0
  1 16  1  1  0  0  0
  1  5  1  0  0  0  0
  1  2  1  0  0  0  0
  2  3  1  0  0  0  0
  3  4  1  0  0  0  0
  4  6  1  1  0  0  0
  5  4  1  0  0  0  0
  6  9  1  0  0  0  0
  6  7  1  0  0  0  0
  8  7  2  0  0  0  0
 10  7  1  6  0  0  0
 10 15  1  0  0  0  0
 10 11  1  0  0  0  0
 11 12  1  0  0  0  0
 12 13  1  0  0  0  0
 14 13  1  0  0  0  0
 15 14  1  0  0  0  0
 16 19  1  0  0  0  0
 17 16  1  0  0  0  0
 18 17  1  0  0  0  0
 19 20  1  0  0  0  0
M  END
>  <REMARK>
  5 active torsions:
  status: ('A' for Active; 'I' for Inactive)
    1  A    between atoms: O_1  and  C_2 
    2  A    between atoms: C_2  and  O_3 
    3  A    between atoms: C_2  and  C_4 
    4  A    between atoms: C_7  and  N_8 
       I    between atoms: N_8  and  C_9 
    5  A    between atoms: C_9  and  C_11 

>  <TORSDO>
F 5

$$$$
C:\Users\siddh\.mgltools\PyRx\Ligands\ZINC000262652414_uff_E=1509.90.pdbqt
 OpenBabel04182118313D

 19 20  0  0  1  0  0  0  0  0999 V2000
    0.7990   -0.6180    0.8660 N   0  0  0  0  0  0  0  0  0  0  0  0
    0.1320   -1.4210    1.7940 C   0  0  0  0  0  0  0  0  0  0  0  0
    0.7180   -1.8360    2.7830 O   0  0  0  0  0  0  0  0  0  0  0  0
    0.1440   -0.2410   -0.4110 C   0  0  1  0  0  3  0  0  0  0  0  0
    0.0190    1.2830   -0.5590 C   0  0  0  0  0  1  0  0  0  0  0  0
    0.8620   -0.8320   -1.6090 C   0  0  0  0  0  3  0  0  0  0  0  0
    1.9700   -1.5830   -1.4590 O   0  0  0  0  0  0  0  0  0  0  0  0
    2.4000   -1.9390   -2.2120 H   0  0  0  0  0  0  0  0  0  0  0  0
    0.3640   -0.6390   -2.8460 O   0  0  0  0  0  0  0  0  0  0  0  0
   -0.4060   -0.1180   -2.9640 H   0  0  0  0  0  0  0  0  0  0  0  0
    2.1840   -0.1120    1.0720 C   0  0  0  0  0  3  0  0  0  0  0  0
    3.1460   -1.2840    1.2300 C   0  0  0  0  0  2  0  0  0  0  0  0
    2.9990   -0.2760    2.3630 C   0  0  0  0  0  2  0  0  0  0  0  0
   -1.3260   -1.8430    1.6500 C   0  0  1  0  0  3  0  0  0  0  0  0
   -1.6060   -2.8790    2.5790 O   0  0  0  0  0  0  0  0  0  0  0  0
   -2.9630   -3.2570    2.4650 C   0  0  0  0  0  2  0  0  0  0  0  0
   -3.8570   -2.0610    2.8020 C   0  0  0  0  0  2  0  0  0  0  0  0
   -3.6080   -1.0020    1.8990 O   0  0  0  0  0  0  0  0  0  0  0  0
   -2.2440   -0.6330    1.9710 C   0  0  0  0  0  2  0  0  0  0  0  0
  1 11  1  0  0  0  0
  1  2  1  0  0  0  0
  2  3  2  0  0  0  0
  4  5  1  6  0  0  0
  4  1  1  0  0  0  0
  6  7  1  0  0  0  0
  6  4  1  0  0  0  0
  8  7  1  0  0  0  0
  9  6  1  0  0  0  0
 10  9  1  0  0  0  0
 11 12  1  0  0  0  0
 11 13  1  0  0  0  0
 12 13  1  0  0  0  0
 14  2  1  1  0  0  0
 14 19  1  0  0  0  0
 14 15  1  0  0  0  0
 16 15  1  0  0  0  0
 16 17  1  0  0  0  0
 18 19  1  0  0  0  0
 18 17  1  0  0  0  0
M  END
>  <REMARK>
  6 active torsions:
  status: ('A' for Active; 'I' for Inactive)
    1  A    between atoms: C_2  and  C_3 
    2  A    between atoms: C_2  and  N_6 
    3  A    between atoms: C_3  and  O_4 
    4  A    between atoms: C_3  and  O_5 
       I    between atoms: N_6  and  C_7 
    5  A    between atoms: N_6  and  C_15 
    6  A    between atoms: C_7  and  C_9 

>  <TORSDO>
F 6

$$$$
C:\Users\siddh\.mgltools\PyRx\Ligands\ZINC000262369861_uff_E=1473.53.pdbqt
 OpenBabel04182118313D

 19 20  0  0  1  0  0  0  0  0999 V2000
   -1.1450   -2.1250    0.0410 C   0  0  2  0  0  3  0  0  0  0  0  0
   -2.5520   -2.7570   -0.0220 C   0  0  0  0  0  2  0  0  0  0  0  0
   -2.4080   -4.2020    0.1240 N   0  0  0  0  0  0  0  0  0  0  0  0
   -2.9410   -5.0670   -0.8050 C   0  0  0  0  0  0  0  0  0  0  0  0
   -3.5830   -4.6160   -1.7390 O   0  0  0  0  0  0  0  0  0  0  0  0
   -1.6550   -4.6420    1.2880 C   0  0  0  0  0  2  0  0  0  0  0  0
   -0.3010   -3.9210    1.2710 C   0  0  0  0  0  2  0  0  0  0  0  0
   -0.4870   -2.5140    1.2410 O   0  0  0  0  0  0  0  0  0  0  0  0
   -2.7600   -6.5840   -0.6830 C   0  0  2  0  0  3  0  0  0  0  0  0
   -3.4680   -7.5840   -1.6410 C   0  0  1  0  0  3  0  0  0  0  0  0
   -4.0270   -7.3050   -0.2520 C   0  0  0  0  0  2  0  0  0  0  0  0
   -4.1840   -6.9900   -2.8230 C   0  0  0  0  0  3  0  0  0  0  0  0
   -5.5140   -7.1500   -2.9560 O   0  0  0  0  0  0  0  0  0  0  0  0
   -5.9590   -6.7800   -3.6930 H   0  0  0  0  0  0  0  0  0  0  0  0
   -3.4900   -6.3410   -3.7790 O   0  0  0  0  0  0  0  0  0  0  0  0
   -2.5640   -6.2280   -3.6900 H   0  0  0  0  0  0  0  0  0  0  0  0
   -1.2510   -0.5950    0.0030 C   0  0  0  0  0  2  0  0  0  0  0  0
    0.0460   -0.0370    0.0240 O   0  0  0  0  0  0  0  0  0  0  0  0
   -0.0500    1.3700    0.0160 C   0  0  0  0  0  1  0  0  0  0  0  0
  1 17  1  1  0  0  0
  1  8  1  0  0  0  0
  2  1  1  0  0  0  0
  2  3  1  0  0  0  0
  3  6  1  0  0  0  0
  4  3  1  0  0  0  0
  5  4  2  0  0  0  0
  7  6  1  0  0  0  0
  8  7  1  0  0  0  0
  9  4  1  6  0  0  0
  9 11  1  0  0  0  0
 10 12  1  6  0  0  0
 10  9  1  0  0  0  0
 10 11  1  0  0  0  0
 13 12  1  0  0  0  0
 14 13  1  0  0  0  0
 15 16  1  0  0  0  0
 15 12  1  0  0  0  0
 17 18  1  0  0  0  0
 19 18  1  0  0  0  0
M  END
>  <REMARK>
  6 active torsions:
  status: ('A' for Active; 'I' for Inactive)
    1  A    between atoms: O_2  and  C_3 
    2  A    between atoms: C_3  and  C_4 
       I    between atoms: N_6  and  C_7 
    3  A    between atoms: C_7  and  C_9 
    4  A    between atoms: C_11  and  C_12 
    5  A    between atoms: C_12  and  O_13 
    6  A    between atoms: C_12  and  O_14 

>  <TORSDO>
F 6

$$$$
C:\Users\siddh\.mgltools\PyRx\Ligands\ZINC000262369858_uff_E=1445.38.pdbqt
 OpenBabel04182118313D

 19 20  0  0  1  0  0  0  0  0999 V2000
   -1.1450   -2.1290    0.0190 C   0  0  2  0  0  3  0  0  0  0  0  0
   -2.5410   -2.7830   -0.0720 C   0  0  0  0  0  2  0  0  0  0  0  0
   -2.3820   -4.2250    0.0850 N   0  0  0  0  0  0  0  0  0  0  0  0
   -2.8910   -5.1140   -0.8360 C   0  0  0  0  0  0  0  0  0  0  0  0
   -3.4930   -4.6950   -1.8150 O   0  0  0  0  0  0  0  0  0  0  0  0
   -1.6390   -4.6520    1.2610 C   0  0  0  0  0  2  0  0  0  0  0  0
   -0.2970   -3.9150    1.2580 C   0  0  0  0  0  2  0  0  0  0  0  0
   -0.5010   -2.5120    1.2280 O   0  0  0  0  0  0  0  0  0  0  0  0
   -2.7580   -6.6210   -0.6290 C   0  0  1  0  0  3  0  0  0  0  0  0
   -3.3730   -7.5160   -1.7370 C   0  0  1  0  0  3  0  0  0  0  0  0
   -1.8680   -7.3400   -1.6270 C   0  0  0  0  0  2  0  0  0  0  0  0
   -3.9240   -8.8000   -1.1780 C   0  0  0  0  0  3  0  0  0  0  0  0
   -3.4340   -9.9830   -1.5940 O   0  0  0  0  0  0  0  0  0  0  0  0
   -3.7790  -10.7810   -1.2450 H   0  0  0  0  0  0  0  0  0  0  0  0
   -4.9280   -8.7710   -0.2810 O   0  0  0  0  0  0  0  0  0  0  0  0
   -5.2720   -7.9490    0.0110 H   0  0  0  0  0  0  0  0  0  0  0  0
   -1.2600   -0.6000   -0.0120 C   0  0  0  0  0  2  0  0  0  0  0  0
    0.0370   -0.0410    0.0230 O   0  0  0  0  0  0  0  0  0  0  0  0
   -0.0570    1.3660    0.0160 C   0  0  0  0  0  1  0  0  0  0  0  0
  1 17  1  1  0  0  0
  1  8  1  0  0  0  0
  2  1  1  0  0  0  0
  2  3  1  0  0  0  0
  3  6  1  0  0  0  0
  4  3  1  0  0  0  0
  5  4  2  0  0  0  0
  7  6  1  0  0  0  0
  8  7  1  0  0  0  0
  9  4  1  6  0  0  0
 10 11  1  0  0  0  0
 10 12  1  1  0  0  0
 10  9  1  0  0  0  0
 11  9  1  0  0  0  0
 12 15  1  0  0  0  0
 13 14  1  0  0  0  0
 13 12  1  0  0  0  0
 15 16  1  0  0  0  0
 17 18  1  0  0  0  0
 19 18  1  0  0  0  0
M  END
>  <REMARK>
  6 active torsions:
  status: ('A' for Active; 'I' for Inactive)
    1  A    between atoms: O_2  and  C_3 
    2  A    between atoms: C_3  and  C_4 
       I    between atoms: N_6  and  C_7 
    3  A    between atoms: C_7  and  C_9 
    4  A    between atoms: C_11  and  C_12 
    5  A    between atoms: C_12  and  O_13 
    6  A    between atoms: C_12  and  O_14 

>  <TORSDO>
F 6

$$$$
C:\Users\siddh\.mgltools\PyRx\Ligands\ZINC000262219237_uff_E=1507.91.pdbqt
 OpenBabel04182118313D

 23 24  0  0  0  0  0  0  0  0999 V2000
    2.3650    0.1280   -0.3060 C   0  0  0  0  0  0  0  0  0  0  0  0
    1.3830   -0.3520   -0.8490 O   0  0  0  0  0  0  0  0  0  0  0  0
    3.3290   -0.6910    0.2670 N   0  0  0  0  0  0  0  0  0  0  0  0
    2.4590    1.6160   -0.2640 C   0  0  0  0  0  0  0  0  0  0  0  0
    2.1470    2.4320   -1.3790 C   0  0  0  0  0  0  0  0  0  0  0  0
    2.2090    3.7850   -1.2460 N   0  0  0  0  0  0  0  0  0  0  0  0
    2.5500    4.3680   -0.0690 C   0  0  0  0  0  3  0  0  0  0  0  0
    1.9940    4.3740   -2.0500 H   0  0  0  0  0  0  0  0  0  0  0  0
    2.8560    3.5700    1.0300 C   0  0  0  0  0  3  0  0  0  0  0  0
    2.8060    2.2200    0.9090 N   0  0  0  0  0  0  0  0  0  0  0  0
    3.0350    1.6410    1.7170 H   0  0  0  0  0  0  0  0  0  0  0  0
    1.8370    1.8810   -2.6500 N   0  0  0  0  0  0  0  0  0  0  0  0
    1.8660    0.8690   -2.8280 H   0  0  0  0  0  0  0  0  0  0  0  0
    1.6610    2.5090   -3.4470 H   0  0  0  0  0  0  0  0  0  0  0  0
    4.6070   -0.1270    0.7150 C   0  0  0  0  0  2  0  0  0  0  0  0
    4.7630   -0.1790    2.2070 C   0  0  0  0  0  3  0  0  0  0  0  0
    3.7730   -0.6470    2.9920 O   0  0  0  0  0  0  0  0  0  0  0  0
    3.8840   -0.6730    3.9220 H   0  0  0  0  0  0  0  0  0  0  0  0
    5.9000    0.2740    2.7700 O   0  0  0  0  0  0  0  0  0  0  0  0
    6.5920    0.6010    2.2300 H   0  0  0  0  0  0  0  0  0  0  0  0
    3.2090   -2.1620    0.3900 C   0  0  0  0  0  3  0  0  0  0  0  0
    3.0170   -2.7700   -0.9950 C   0  0  0  0  0  2  0  0  0  0  0  0
    1.9430   -2.9570    0.0740 C   0  0  0  0  0  2  0  0  0  0  0  0
  1  4  1  0  0  0  0
  1  3  1  0  0  0  0
  2  1  2  0  0  0  0
  3 21  1  0  0  0  0
  3 15  1  0  0  0  0
  4 10  1  0  0  0  0
  5  6  1  0  0  0  0
  5  4  2  0  0  0  0
  6  7  1  0  0  0  0
  7  9  2  0  0  0  0
  8  6  1  0  0  0  0
 10  9  1  0  0  0  0
 10 11  1  0  0  0  0
 12  5  1  0  0  0  0
 13 12  1  0  0  0  0
 14 12  1  0  0  0  0
 15 16  1  0  0  0  0
 16 19  1  0  0  0  0
 16 17  1  0  0  0  0
 17 18  1  0  0  0  0
 20 19  1  0  0  0  0
 22 23  1  0  0  0  0
 22 21  1  0  0  0  0
 23 21  1  0  0  0  0
M  END
>  <REMARK>
  7 active torsions:
  status: ('A' for Active; 'I' for Inactive)
    1  A    between atoms: N_1  and  C_2 
    2  A    between atoms: C_9  and  C_10 
       I    between atoms: C_10  and  N_12 
    3  A    between atoms: N_12  and  C_13 
    4  A    between atoms: N_12  and  C_17 
    5  A    between atoms: C_13  and  C_14 
    6  A    between atoms: C_14  and  O_15 
    7  A    between atoms: C_14  and  O_16 

>  <TORSDO>
F 7

$$$$
C:\Users\siddh\.mgltools\PyRx\Ligands\ZINC000262187141_uff_E=447.85.pdbqt
 OpenBabel04182118313D

 20 21  0  0  1  0  0  0  0  0999 V2000
   -2.9490   -0.2310   -1.6820 C   0  0  0  0  0  0  0  0  0  0  0  0
   -3.2480    0.9380   -1.5090 O   0  0  0  0  0  0  0  0  0  0  0  0
   -3.6810   -1.2290   -1.0340 N   0  0  0  0  0  0  0  0  0  0  0  0
   -3.3660   -2.6550   -1.1540 C   0  0  0  0  0  2  0  0  0  0  0  0
   -3.2670   -3.2630    0.2450 C   0  0  0  0  0  2  0  0  0  0  0  0
   -4.4840   -3.0860    0.9400 O   0  0  0  0  0  0  0  0  0  0  0  0
   -4.6980   -1.7070    1.1620 C   0  0  0  0  0  2  0  0  0  0  0  0
   -4.8590   -0.9490   -0.1730 C   0  0  1  0  0  3  0  0  0  0  0  0
   -1.8200   -0.4720   -2.6510 C   0  0  0  0  0  0  0  0  0  0  0  0
   -1.0070    0.5080   -3.2050 C   0  0  0  0  0  0  0  0  0  0  0  0
   -1.0400    1.9820   -2.9620 C   0  0  0  0  0  1  0  0  0  0  0  0
   -0.1590   -0.0770   -4.0140 O   0  0  0  0  0  0  0  0  0  0  0  0
   -0.4140   -1.3650   -3.9940 C   0  0  0  0  0  2  0  0  0  0  0  0
   -1.4390   -1.6540   -3.1700 N   0  0  0  0  0  0  0  0  0  0  0  0
   -1.8400   -2.5720   -2.9790 H   0  0  0  0  0  0  0  0  0  0  0  0
   -5.1570    0.5000    0.1550 C   0  0  0  0  0  3  0  0  0  0  0  0
   -4.2980    1.2200    0.9070 O   0  0  0  0  0  0  0  0  0  0  0  0
   -4.4870    2.1150    1.1070 H   0  0  0  0  0  0  0  0  0  0  0  0
   -6.3020    1.0670   -0.2700 O   0  0  0  0  0  0  0  0  0  0  0  0
   -6.9030    0.5740   -0.7920 H   0  0  0  0  0  0  0  0  0  0  0  0
  1  2  2  0  0  0  0
  1  3  1  0  0  0  0
  3  8  1  0  0  0  0
  4  3  1  0  0  0  0
  4  5  1  0  0  0  0
  5  6  1  0  0  0  0
  6  7  1  0  0  0  0
  8 16  1  1  0  0  0
  8  7  1  0  0  0  0
  9  1  1  0  0  0  0
 10 11  1  0  0  0  0
 10  9  2  0  0  0  0
 12 13  1  0  0  0  0
 12 10  1  0  0  0  0
 13 14  1  0  0  0  0
 14 15  1  0  0  0  0
 14  9  1  0  0  0  0
 16 17  1  0  0  0  0
 17 18  1  0  0  0  0
 19 16  1  0  0  0  0
 20 19  1  0  0  0  0
M  END
>  <REMARK>
  4 active torsions:
  status: ('A' for Active; 'I' for Inactive)
    1  A    between atoms: C_3  and  C_4 
       I    between atoms: C_4  and  N_6 
    2  A    between atoms: C_11  and  C_12 
    3  A    between atoms: C_12  and  O_13 
    4  A    between atoms: C_12  and  O_14 

>  <TORSDO>
F 4

$$$$
C:\Users\siddh\.mgltools\PyRx\Ligands\ZINC000262187137_uff_E=447.15.pdbqt
 OpenBabel04182118313D

 20 21  0  0  1  0  0  0  0  0999 V2000
   -3.2000   -0.3070    1.5910 C   0  0  0  0  0  0  0  0  0  0  0  0
   -3.5900    0.8470    1.5450 O   0  0  0  0  0  0  0  0  0  0  0  0
   -3.8390   -1.2740    0.8140 N   0  0  0  0  0  0  0  0  0  0  0  0
   -3.5810   -2.7090    0.9380 C   0  0  0  0  0  2  0  0  0  0  0  0
   -3.1980   -3.2510   -0.4370 C   0  0  0  0  0  2  0  0  0  0  0  0
   -4.2580   -3.0320   -1.3490 O   0  0  0  0  0  0  0  0  0  0  0  0
   -4.4590   -1.6420   -1.5280 C   0  0  0  0  0  2  0  0  0  0  0  0
   -4.8640   -0.9500   -0.2060 C   0  0  2  0  0  3  0  0  0  0  0  0
   -2.0410   -0.5640    2.5180 C   0  0  0  0  0  0  0  0  0  0  0  0
   -1.4740    0.3660    3.3800 C   0  0  0  0  0  0  0  0  0  0  0  0
   -1.8860    1.7850    3.6090 C   0  0  0  0  0  1  0  0  0  0  0  0
   -0.4690   -0.2080    3.9910 O   0  0  0  0  0  0  0  0  0  0  0  0
   -0.3810   -1.4400    3.5440 C   0  0  0  0  0  2  0  0  0  0  0  0
   -1.3310   -1.7020    2.6240 N   0  0  0  0  0  0  0  0  0  0  0  0
   -1.4800   -2.5740    2.1180 H   0  0  0  0  0  0  0  0  0  0  0  0
   -5.0900    0.5160   -0.5170 C   0  0  0  0  0  3  0  0  0  0  0  0
   -6.2930    1.0770   -0.2950 O   0  0  0  0  0  0  0  0  0  0  0  0
   -6.4300    1.9840   -0.4890 H   0  0  0  0  0  0  0  0  0  0  0  0
   -4.0960    1.2610   -1.0450 O   0  0  0  0  0  0  0  0  0  0  0  0
   -3.2560    0.8770   -1.2020 H   0  0  0  0  0  0  0  0  0  0  0  0
  1  9  1  0  0  0  0
  2  1  2  0  0  0  0
  3  4  1  0  0  0  0
  3  1  1  0  0  0  0
  5  4  1  0  0  0  0
  6  5  1  0  0  0  0
  7  6  1  0  0  0  0
  7  8  1  0  0  0  0
  8 16  1  6  0  0  0
  8  3  1  0  0  0  0
  9 14  1  0  0  0  0
  9 10  2  0  0  0  0
 10 11  1  0  0  0  0
 10 12  1  0  0  0  0
 13 12  1  0  0  0  0
 14 13  1  0  0  0  0
 15 14  1  0  0  0  0
 16 17  1  0  0  0  0
 18 17  1  0  0  0  0
 19 16  1  0  0  0  0
 20 19  1  0  0  0  0
M  END
>  <REMARK>
  4 active torsions:
  status: ('A' for Active; 'I' for Inactive)
    1  A    between atoms: C_3  and  C_4 
       I    between atoms: C_4  and  N_6 
    2  A    between atoms: C_11  and  C_12 
    3  A    between atoms: C_12  and  O_13 
    4  A    between atoms: C_12  and  O_14 

>  <TORSDO>
F 4

$$$$
C:\Users\siddh\.mgltools\PyRx\Ligands\ZINC000261594971_uff_E=204.59.pdbqt
 OpenBabel04182118313D

 18 18  0  0  1  0  0  0  0  0999 V2000
   -2.6620   -2.3490    0.6980 C   0  0  0  0  0  0  0  0  0  0  0  0
   -3.5070   -1.5120    0.9880 O   0  0  0  0  0  0  0  0  0  0  0  0
   -2.8570   -3.6680    1.0530 N   0  0  0  0  0  0  0  0  0  0  0  0
   -1.8630   -4.7120    0.8430 C   0  0  0  0  0  2  0  0  0  0  0  0
   -2.5240   -5.8330    0.0420 C   0  0  0  0  0  2  0  0  0  0  0  0
   -3.6600   -6.3180    0.7370 O   0  0  0  0  0  0  0  0  0  0  0  0
   -4.6470   -5.3000    0.8500 C   0  0  2  0  0  3  0  0  0  0  0  0
   -4.1000   -4.1110    1.6730 C   0  0  0  0  0  2  0  0  0  0  0  0
   -1.4160   -1.8780   -0.0400 C   0  0  1  0  0  3  0  0  0  0  0  0
   -1.4730   -2.3720   -1.4970 C   0  0  0  0  0  1  0  0  0  0  0  0
   -1.3740   -0.4580   -0.0420 O   0  0  0  0  0  0  0  0  0  0  0  0
   -0.0340    0.0030   -0.0360 C   0  0  0  0  0  2  0  0  0  0  0  0
   -0.0260    1.5210   -0.0320 C   0  0  0  0  0  1  0  0  0  0  0  0
   -5.8640   -5.8710    1.5230 C   0  0  0  0  0  3  0  0  0  0  0  0
   -5.8670   -7.1460    1.9610 O   0  0  0  0  0  0  0  0  0  0  0  0
   -6.6290   -7.4960    2.3800 H   0  0  0  0  0  0  0  0  0  0  0  0
   -6.9620   -5.1090    1.6910 O   0  0  0  0  0  0  0  0  0  0  0  0
   -6.9670   -4.2220    1.3900 H   0  0  0  0  0  0  0  0  0  0  0  0
  1  2  2  0  0  0  0
  1  3  1  0  0  0  0
  3  8  1  0  0  0  0
  4  3  1  0  0  0  0
  5  6  1  0  0  0  0
  5  4  1  0  0  0  0
  6  7  1  0  0  0  0
  7 14  1  1  0  0  0
  7  8  1  0  0  0  0
  9 10  1  6  0  0  0
  9  1  1  0  0  0  0
 11  9  1  0  0  0  0
 11 12  1  0  0  0  0
 12 13  1  0  0  0  0
 14 17  1  0  0  0  0
 14 15  1  0  0  0  0
 15 16  1  0  0  0  0
 18 17  1  0  0  0  0
M  END
>  <REMARK>
  6 active torsions:
  status: ('A' for Active; 'I' for Inactive)
    1  A    between atoms: C_2  and  O_3 
    2  A    between atoms: O_3  and  C_4 
    3  A    between atoms: C_4  and  C_6 
       I    between atoms: C_6  and  N_8 
    4  A    between atoms: C_12  and  C_13 
    5  A    between atoms: C_13  and  O_14 
    6  A    between atoms: C_13  and  O_15 

>  <TORSDO>
F 6

$$$$
C:\Users\siddh\.mgltools\PyRx\Ligands\ZINC000261584271_uff_E=256.31.pdbqt
 OpenBabel04182118313D

 18 18  0  0  1  0  0  0  0  0999 V2000
    0.7130   -2.7860    2.7750 C   0  0  0  0  0  0  0  0  0  0  0  0
    1.2170   -2.0260    3.5890 O   0  0  0  0  0  0  0  0  0  0  0  0
    1.2770   -4.0370    2.5450 N   0  0  0  0  0  0  0  0  0  0  0  0
    0.7180   -4.9700    1.5640 C   0  0  0  0  0  2  0  0  0  0  0  0
    1.8320   -5.3460    0.5800 C   0  0  0  0  0  2  0  0  0  0  0  0
    2.9140   -5.9420    1.2720 O   0  0  0  0  0  0  0  0  0  0  0  0
    3.4970   -5.0020    2.1570 C   0  0  0  0  0  2  0  0  0  0  0  0
    2.4850   -4.5440    3.2290 C   0  0  1  0  0  3  0  0  0  0  0  0
   -0.5660   -2.3090    2.0840 C   0  0  1  0  0  3  0  0  0  0  0  0
   -1.7830   -2.9380    2.7850 C   0  0  0  0  0  1  0  0  0  0  0  0
   -0.6730   -0.7710    2.0980 C   0  0  0  0  0  2  0  0  0  0  0  0
   -1.8180   -0.3690    1.3750 O   0  0  0  0  0  0  0  0  0  0  0  0
   -1.8470    1.0370    1.2910 C   0  0  0  0  0  1  0  0  0  0  0  0
    3.1940   -3.6050    4.1830 C   0  0  0  0  0  3  0  0  0  0  0  0
    3.7940   -2.4870    3.7230 O   0  0  0  0  0  0  0  0  0  0  0  0
    4.2300   -1.9110    4.3190 H   0  0  0  0  0  0  0  0  0  0  0  0
    3.2670   -3.9060    5.4930 O   0  0  0  0  0  0  0  0  0  0  0  0
    2.8520   -4.6800    5.8190 H   0  0  0  0  0  0  0  0  0  0  0  0
  1  2  2  0  0  0  0
  3  1  1  0  0  0  0
  3  8  1  0  0  0  0
  4  3  1  0  0  0  0
  5  6  1  0  0  0  0
  5  4  1  0  0  0  0
  6  7  1  0  0  0  0
  7  8  1  0  0  0  0
  8 14  1  6  0  0  0
  9 11  1  0  0  0  0
  9  1  1  0  0  0  0
  9 10  1  1  0  0  0
 12 11  1  0  0  0  0
 13 12  1  0  0  0  0
 14 17  1  0  0  0  0
 15 14  1  0  0  0  0
 15 16  1  0  0  0  0
 17 18  1  0  0  0  0
M  END
>  <REMARK>
  6 active torsions:
  status: ('A' for Active; 'I' for Inactive)
    1  A    between atoms: O_2  and  C_3 
    2  A    between atoms: C_3  and  C_4 
    3  A    between atoms: C_4  and  C_6 
       I    between atoms: C_6  and  N_8 
    4  A    between atoms: C_13  and  C_14 
    5  A    between atoms: C_14  and  O_15 
    6  A    between atoms: C_14  and  O_16 

>  <TORSDO>
F 6

$$$$
C:\Users\siddh\.mgltools\PyRx\Ligands\ZINC000261584193_uff_E=251.85.pdbqt
 OpenBabel04182118313D

 18 18  0  0  1  0  0  0  0  0999 V2000
   -0.0460   -2.7600    3.2720 C   0  0  0  0  0  0  0  0  0  0  0  0
    0.0850   -2.0300    4.2460 O   0  0  0  0  0  0  0  0  0  0  0  0
    0.8610   -3.7880    3.0480 N   0  0  0  0  0  0  0  0  0  0  0  0
    0.6760   -4.7600    1.9690 C   0  0  0  0  0  2  0  0  0  0  0  0
    1.9750   -4.8430    1.1660 C   0  0  0  0  0  2  0  0  0  0  0  0
    3.0420   -5.2320    2.0130 O   0  0  0  0  0  0  0  0  0  0  0  0
    3.2710   -4.2300    2.9890 C   0  0  0  0  0  2  0  0  0  0  0  0
    2.0390   -4.0460    3.9000 C   0  0  1  0  0  3  0  0  0  0  0  0
   -1.2770   -2.5340    2.3940 C   0  0  2  0  0  3  0  0  0  0  0  0
   -0.8740   -1.8990    1.0490 C   0  0  0  0  0  1  0  0  0  0  0  0
   -2.3040   -1.6320    3.1110 C   0  0  0  0  0  2  0  0  0  0  0  0
   -3.4860   -1.5500    2.3450 O   0  0  0  0  0  0  0  0  0  0  0  0
   -4.4260   -0.7600    3.0360 C   0  0  0  0  0  1  0  0  0  0  0  0
    2.3700   -2.9940    4.9380 C   0  0  0  0  0  3  0  0  0  0  0  0
    2.7530   -1.7580    4.5570 O   0  0  0  0  0  0  0  0  0  0  0  0
    2.9570   -1.1110    5.2030 H   0  0  0  0  0  0  0  0  0  0  0  0
    2.2860   -3.2890    6.2490 O   0  0  0  0  0  0  0  0  0  0  0  0
    2.0200   -4.1460    6.5210 H   0  0  0  0  0  0  0  0  0  0  0  0
  1  2  2  0  0  0  0
  3  1  1  0  0  0  0
  3  8  1  0  0  0  0
  4  3  1  0  0  0  0
  5  4  1  0  0  0  0
  5  6  1  0  0  0  0
  6  7  1  0  0  0  0
  7  8  1  0  0  0  0
  8 14  1  1  0  0  0
  9 10  1  6  0  0  0
  9 11  1  0  0  0  0
  9  1  1  0  0  0  0
 12 13  1  0  0  0  0
 12 11  1  0  0  0  0
 14 17  1  0  0  0  0
 15 14  1  0  0  0  0
 15 16  1  0  0  0  0
 17 18  1  0  0  0  0
M  END
>  <REMARK>
  6 active torsions:
  status: ('A' for Active; 'I' for Inactive)
    1  A    between atoms: O_2  and  C_3 
    2  A    between atoms: C_3  and  C_4 
    3  A    between atoms: C_4  and  C_6 
       I    between atoms: C_6  and  N_8 
    4  A    between atoms: C_13  and  C_14 
    5  A    between atoms: C_14  and  O_15 
    6  A    between atoms: C_14  and  O_16 

>  <TORSDO>
F 6

$$$$
C:\Users\siddh\.mgltools\PyRx\Ligands\ZINC000261569117_uff_E=246.53.pdbqt
 OpenBabel04182118313D

 18 18  0  0  1  0  0  0  0  0999 V2000
   -2.1910   -2.5900   -2.0720 C   0  0  0  0  0  0  0  0  0  0  0  0
   -2.9230   -1.8280   -2.6890 O   0  0  0  0  0  0  0  0  0  0  0  0
   -2.7110   -3.7390   -1.4870 N   0  0  0  0  0  0  0  0  0  0  0  0
   -1.8490   -4.7470   -0.8650 C   0  0  0  0  0  2  0  0  0  0  0  0
   -2.3870   -5.0540    0.5320 C   0  0  0  0  0  2  0  0  0  0  0  0
   -3.7200   -5.5240    0.4410 O   0  0  0  0  0  0  0  0  0  0  0  0
   -4.5570   -4.4980   -0.0620 C   0  0  0  0  0  2  0  0  0  0  0  0
   -4.1450   -4.0900   -1.4940 C   0  0  1  0  0  3  0  0  0  0  0  0
   -0.7090   -2.2490   -2.0510 C   0  0  2  0  0  3  0  0  0  0  0  0
   -0.2830   -1.7880   -0.6490 C   0  0  0  0  0  1  0  0  0  0  0  0
   -0.4790   -1.1820   -2.9600 O   0  0  0  0  0  0  0  0  0  0  0  0
    0.7670   -1.3170   -3.6090 C   0  0  0  0  0  2  0  0  0  0  0  0
    0.9170   -0.1850   -4.6120 C   0  0  0  0  0  1  0  0  0  0  0  0
   -5.1010   -3.0190   -1.9730 C   0  0  0  0  0  3  0  0  0  0  0  0
   -5.2400   -1.8720   -1.2760 O   0  0  0  0  0  0  0  0  0  0  0  0
   -5.8330   -1.2110   -1.5750 H   0  0  0  0  0  0  0  0  0  0  0  0
   -5.8240   -3.2090   -3.0920 O   0  0  0  0  0  0  0  0  0  0  0  0
   -5.7320   -4.0030   -3.5800 H   0  0  0  0  0  0  0  0  0  0  0  0
  1  9  1  0  0  0  0
  1  3  1  0  0  0  0
  2  1  2  0  0  0  0
  3  4  1  0  0  0  0
  4  5  1  0  0  0  0
  6  5  1  0  0  0  0
  7  6  1  0  0  0  0
  8 14  1  1  0  0  0
  8  3  1  0  0  0  0
  8  7  1  0  0  0  0
  9 10  1  1  0  0  0
 11  9  1  0  0  0  0
 12 11  1  0  0  0  0
 13 12  1  0  0  0  0
 14 15  1  0  0  0  0
 16 15  1  0  0  0  0
 17 14  1  0  0  0  0
 18 17  1  0  0  0  0
M  END
>  <REMARK>
  6 active torsions:
  status: ('A' for Active; 'I' for Inactive)
    1  A    between atoms: C_2  and  O_3 
    2  A    between atoms: O_3  and  C_4 
    3  A    between atoms: C_4  and  C_6 
       I    between atoms: C_6  and  N_8 
    4  A    between atoms: C_13  and  C_14 
    5  A    between atoms: C_14  and  O_15 
    6  A    between atoms: C_14  and  O_16 

>  <TORSDO>
F 6

$$$$
C:\Users\siddh\.mgltools\PyRx\Ligands\ZINC000261569114_uff_E=245.45.pdbqt
 OpenBabel04182118313D

 18 18  0  0  1  0  0  0  0  0999 V2000
   -2.6360   -2.2910    2.5700 C   0  0  0  0  0  0  0  0  0  0  0  0
   -3.5950   -1.5770    2.8240 O   0  0  0  0  0  0  0  0  0  0  0  0
   -2.8340   -3.5720    2.0680 N   0  0  0  0  0  0  0  0  0  0  0  0
   -1.7340   -4.5300    1.9400 C   0  0  0  0  0  2  0  0  0  0  0  0
   -1.7200   -5.0730    0.5120 C   0  0  0  0  0  2  0  0  0  0  0  0
   -2.9620   -5.6870    0.2200 O   0  0  0  0  0  0  0  0  0  0  0  0
   -3.9920   -4.7150    0.2420 C   0  0  0  0  0  2  0  0  0  0  0  0
   -4.1500   -4.0980    1.6510 C   0  0  2  0  0  3  0  0  0  0  0  0
   -1.2550   -1.7140    2.8510 C   0  0  1  0  0  3  0  0  0  0  0  0
   -0.5310   -1.4550    1.5180 C   0  0  0  0  0  1  0  0  0  0  0  0
   -1.4130   -0.4700    3.5190 O   0  0  0  0  0  0  0  0  0  0  0  0
   -0.3610   -0.2390    4.4320 C   0  0  0  0  0  2  0  0  0  0  0  0
   -0.6090    1.0830    5.1400 C   0  0  0  0  0  1  0  0  0  0  0  0
   -5.2870   -3.0990    1.5820 C   0  0  0  0  0  3  0  0  0  0  0  0
   -6.3800   -3.2630    2.3500 O   0  0  0  0  0  0  0  0  0  0  0  0
   -7.0810   -2.6430    2.3060 H   0  0  0  0  0  0  0  0  0  0  0  0
   -5.2220   -2.0540    0.7310 O   0  0  0  0  0  0  0  0  0  0  0  0
   -4.4650   -1.9340    0.1930 H   0  0  0  0  0  0  0  0  0  0  0  0
  1  2  2  0  0  0  0
  1  9  1  0  0  0  0
  3  1  1  0  0  0  0
  4  3  1  0  0  0  0
  5  4  1  0  0  0  0
  6  7  1  0  0  0  0
  6  5  1  0  0  0  0
  7  8  1  0  0  0  0
  8 14  1  6  0  0  0
  8  3  1  0  0  0  0
  9 10  1  6  0  0  0
  9 11  1  0  0  0  0
 11 12  1  0  0  0  0
 12 13  1  0  0  0  0
 14 15  1  0  0  0  0
 16 15  1  0  0  0  0
 17 14  1  0  0  0  0
 18 17  1  0  0  0  0
M  END
>  <REMARK>
  6 active torsions:
  status: ('A' for Active; 'I' for Inactive)
    1  A    between atoms: C_2  and  O_3 
    2  A    between atoms: O_3  and  C_4 
    3  A    between atoms: C_4  and  C_6 
       I    between atoms: C_6  and  N_8 
    4  A    between atoms: C_13  and  C_14 
    5  A    between atoms: C_14  and  O_15 
    6  A    between atoms: C_14  and  O_16 

>  <TORSDO>
F 6

$$$$
C:\Users\siddh\.mgltools\PyRx\Ligands\ZINC000261536697_uff_E=722.76.pdbqt
 OpenBabel04182118313D

 17 17  0  0  1  0  0  0  0  0999 V2000
    2.5270   -2.5310    1.6370 S   0  0  0  0  0  0  0  0  0  0  0  0
    2.3010   -2.5520    3.1580 O   0  0  0  0  0  0  0  0  0  0  0  0
    2.7640   -4.0020    1.2570 O   0  0  0  0  0  0  0  0  0  0  0  0
    1.0290   -1.9670    0.8670 N   0  0  0  0  0  0  0  0  0  0  0  0
    1.0940   -2.0020   -0.6070 C   0  0  0  0  0  2  0  0  0  0  0  0
    0.9050   -0.5650   -1.0860 C   0  0  0  0  0  2  0  0  0  0  0  0
    0.0120   -0.0190    0.0070 C   0  0  2  0  0  3  0  0  0  0  0  0
   -0.1350    1.5020    0.0020 C   0  0  0  0  0  1  0  0  0  0  0  0
    0.7340   -0.5730    1.2250 C   0  0  0  0  0  2  0  0  0  0  0  0
    3.9290   -1.4990    1.2260 N   0  0  0  0  0  0  0  0  0  0  0  0
    4.5130   -0.8900    2.4270 C   0  0  0  0  0  1  0  0  0  0  0  0
    4.9320   -2.1610    0.3750 C   0  0  0  0  0  2  0  0  0  0  0  0
    5.2180   -1.3210   -0.8350 C   0  0  0  0  0  3  0  0  0  0  0  0
    4.5810   -0.1440   -1.0190 O   0  0  0  0  0  0  0  0  0  0  0  0
    4.7650    0.3750   -1.7770 H   0  0  0  0  0  0  0  0  0  0  0  0
    6.0970   -1.7490   -1.7550 O   0  0  0  0  0  0  0  0  0  0  0  0
    6.5420   -2.5650   -1.6340 H   0  0  0  0  0  0  0  0  0  0  0  0
  1  2  2  0  0  0  0
  3  1  2  0  0  0  0
  4  9  1  0  0  0  0
  4  1  1  0  0  0  0
  5  4  1  0  0  0  0
  6  5  1  0  0  0  0
  6  7  1  0  0  0  0
  7  8  1  1  0  0  0
  7  9  1  0  0  0  0
 10  1  1  0  0  0  0
 10 11  1  0  0  0  0
 12 10  1  0  0  0  0
 13 12  1  0  0  0  0
 14 13  1  0  0  0  0
 15 14  1  0  0  0  0
 16 17  1  0  0  0  0
 16 13  1  0  0  0  0
M  END
>  <REMARK>
  6 active torsions:
  status: ('A' for Active; 'I' for Inactive)
    1  A    between atoms: N_5  and  S_6 
    2  A    between atoms: S_6  and  N_9 
    3  A    between atoms: N_9  and  C_11 
    4  A    between atoms: C_11  and  C_12 
    5  A    between atoms: C_12  and  O_13 
    6  A    between atoms: C_12  and  O_14 

>  <TORSDO>
F 6

$$$$
C:\Users\siddh\.mgltools\PyRx\Ligands\ZINC000261529811_uff_E=76.96.pdbqt
 OpenBabel04182118313D

 19 18  0  0  1  0  0  0  0  0999 V2000
   -0.5820   -2.5770   -1.2850 N   0  0  0  0  0  0  0  0  0  0  0  0
   -0.8110   -3.8710   -0.9260 C   0  0  0  0  0  0  0  0  0  0  0  0
    0.1160   -4.5780   -0.5590 O   0  0  0  0  0  0  0  0  0  0  0  0
   -1.3880   -1.9880   -1.5440 H   0  0  0  0  0  0  0  0  0  0  0  0
    0.7530   -1.9910   -1.2620 C   0  0  2  0  0  3  0  0  0  0  0  0
    0.6810   -0.4530   -1.3000 C   0  0  0  0  0  2  0  0  0  0  0  0
   -0.0200    0.0880   -0.0400 C   0  0  0  0  0  2  0  0  0  0  0  0
   -0.0300    1.6100   -0.0090 C   0  0  0  0  0  1  0  0  0  0  0  0
    1.5580   -2.5090   -2.4240 C   0  0  0  0  0  3  0  0  0  0  0  0
    2.7270   -3.1410   -2.2080 O   0  0  0  0  0  0  0  0  0  0  0  0
    3.2270   -3.4620   -2.9330 H   0  0  0  0  0  0  0  0  0  0  0  0
    1.1150   -2.3380   -3.6860 O   0  0  0  0  0  0  0  0  0  0  0  0
    0.3020   -1.8990   -3.8420 H   0  0  0  0  0  0  0  0  0  0  0  0
   -2.2320   -4.4040   -0.9630 C   0  0  0  0  0  2  0  0  0  0  0  0
   -2.4510   -5.8080   -0.4310 C   0  0  0  0  0  0  0  0  0  0  0  0
   -3.6930   -6.3440   -0.4570 N   0  0  0  0  0  0  0  0  0  0  0  0
   -4.4860   -5.8110   -0.8440 H   0  0  0  0  0  0  0  0  0  0  0  0
   -3.8580   -7.2930   -0.0900 H   0  0  0  0  0  0  0  0  0  0  0  0
   -1.5270   -6.4590    0.0330 O   0  0  0  0  0  0  0  0  0  0  0  0
  1  5  1  0  0  0  0
  1  2  1  0  0  0  0
  2  3  2  0  0  0  0
  4  1  1  0  0  0  0
  5  6  1  6  0  0  0
  6  7  1  0  0  0  0
  7  8  1  0  0  0  0
  9 10  1  0  0  0  0
  9  5  1  0  0  0  0
 11 10  1  0  0  0  0
 12  9  1  0  0  0  0
 13 12  1  0  0  0  0
 14  2  1  0  0  0  0
 14 15  1  0  0  0  0
 15 19  2  0  0  0  0
 16 15  1  0  0  0  0
 16 18  1  0  0  0  0
 17 16  1  0  0  0  0
M  END
>  <REMARK>
  8 active torsions:
  status: ('A' for Active; 'I' for Inactive)
    1  A    between atoms: C_2  and  C_3 
    2  A    between atoms: C_3  and  C_4 
    3  A    between atoms: C_4  and  N_5 
    4  A    between atoms: C_4  and  C_12 
       I    between atoms: N_5  and  C_6 
    5  A    between atoms: C_6  and  C_8 
    6  A    between atoms: C_8  and  C_9 
       I    between atoms: C_9  and  N_10 
    7  A    between atoms: C_12  and  O_13 
    8  A    between atoms: C_12  and  O_14 

>  <TORSDO>
F 8

$$$$
C:\Users\siddh\.mgltools\PyRx\Ligands\ZINC000254318780_uff_E=273.12.pdbqt
 OpenBabel04182118313D

 22 22  0  0  0  0  0  0  0  0999 V2000
    2.0920   -4.3870   -3.6180 N   0  0  0  0  0  0  0  0  0  0  0  0
    2.5140   -3.8470   -4.3730 H   0  0  0  0  0  0  0  0  0  0  0  0
    2.1380   -5.6810   -3.6770 C   0  0  0  0  0  0  0  0  0  0  0  0
    1.5400   -6.5390   -2.6020 C   0  0  0  0  0  3  0  0  0  0  0  0
    0.9320   -5.9880   -1.5340 O   0  0  0  0  0  0  0  0  0  0  0  0
    0.5630   -6.5380   -0.8710 H   0  0  0  0  0  0  0  0  0  0  0  0
    1.6030   -7.8820   -2.6890 O   0  0  0  0  0  0  0  0  0  0  0  0
    2.0220   -8.2850   -3.4240 H   0  0  0  0  0  0  0  0  0  0  0  0
    2.8060   -6.3140   -4.8470 C   0  0  0  0  0  0  0  0  0  0  0  0
    3.4000   -5.6500   -5.9060 C   0  0  0  0  0  3  0  0  0  0  0  0
    3.8750   -6.6470   -6.7300 C   0  0  0  0  0  3  0  0  0  0  0  0
    3.5730   -7.8360   -6.1810 N   0  0  0  0  0  0  0  0  0  0  0  0
    2.9260   -7.6440   -5.0410 N   0  0  0  0  0  0  0  0  0  0  0  0
    3.8040   -8.7750   -6.5760 H   0  0  0  0  0  0  0  0  0  0  0  0
    2.5790   -8.3740   -4.4190 H   0  0  0  0  0  0  0  0  0  0  0  0
    1.5210   -3.7410   -2.6170 O   0  0  0  0  0  0  0  0  0  0  0  0
    1.4890   -2.3610   -2.5870 C   0  0  0  0  0  2  0  0  0  0  0  0
    0.7850   -1.8690   -1.3490 C   0  0  0  0  0  0  0  0  0  0  0  0
    0.3380   -2.6750   -0.5420 O   0  0  0  0  0  0  0  0  0  0  0  0
    0.6480   -0.5310   -1.1310 O   0  0  0  0  0  0  0  0  0  0  0  0
    0.0100   -0.0210   -0.0120 C   0  0  0  0  0  2  0  0  0  0  0  0
    0.0030    1.5030   -0.0280 C   0  0  0  0  0  1  0  0  0  0  0  0
  1 16  1  0  0  0  0
  2  1  1  0  0  0  0
  3  1  1  0  0  0  0
  3  4  1  0  0  0  0
  4  5  1  0  0  0  0
  5  6  1  0  0  0  0
  7  4  1  0  0  0  0
  8  7  1  0  0  0  0
  9  3  2  0  0  0  0
 10  9  1  0  0  0  0
 11 12  1  0  0  0  0
 11 10  2  0  0  0  0
 12 13  1  0  0  0  0
 13  9  1  0  0  0  0
 13 15  1  0  0  0  0
 14 12  1  0  0  0  0
 16 17  1  0  0  0  0
 17 18  1  0  0  0  0
 18 20  1  0  0  0  0
 18 19  2  0  0  0  0
 20 21  1  0  0  0  0
 22 21  1  0  0  0  0
M  END
>  <REMARK>
  9 active torsions:
  status: ('A' for Active; 'I' for Inactive)
    1  A    between atoms: C_2  and  O_3 
    2  A    between atoms: O_3  and  C_4 
    3  A    between atoms: C_4  and  C_6 
    4  A    between atoms: C_6  and  O_7 
    5  A    between atoms: O_7  and  N_8 
    6  A    between atoms: C_10  and  C_11 
    7  A    between atoms: C_10  and  C_14 
    8  A    between atoms: C_11  and  O_12 
    9  A    between atoms: C_11  and  O_13 

>  <TORSDO>
F 9

$$$$
C:\Users\siddh\.mgltools\PyRx\Ligands\ZINC000253536240_uff_E=149.47.pdbqt
 OpenBabel04182118313D

 25 26  0  0  1  0  0  0  0  0999 V2000
    0.7240   -0.4370   -1.1870 C   0  0  0  0  0  0  0  0  0  0  0  0
    0.0270   -0.7910   -2.3030 N   0  0  0  0  0  0  0  0  0  0  0  0
   -0.9890   -0.7010   -2.3030 H   0  0  0  0  0  0  0  0  0  0  0  0
    0.6460   -1.2600   -3.4120 C   0  0  0  0  0  0  0  0  0  0  0  0
    2.0340   -1.4080   -3.4140 C   0  0  0  0  0  0  0  0  0  0  0  0
    2.7460   -1.0770   -2.3060 N   0  0  0  0  0  0  0  0  0  0  0  0
    3.7590   -1.2010   -2.3110 H   0  0  0  0  0  0  0  0  0  0  0  0
    2.1450   -0.5840   -1.1870 C   0  0  0  0  0  0  0  0  0  0  0  0
    2.6560   -1.8890   -4.5680 C   0  0  0  0  0  0  0  0  0  0  0  0
    3.8670   -2.0320   -4.6060 O   0  0  0  0  0  0  0  0  0  0  0  0
    1.8930   -2.1950   -5.6700 N   0  0  0  0  0  0  0  0  0  0  0  0
    0.5380   -2.0370   -5.6430 C   0  0  2  0  0  3  0  0  0  0  0  0
   -0.2380   -2.3470   -6.7830 N   0  0  0  0  0  0  0  0  0  0  0  0
   -0.0740   -1.5750   -4.5180 N   0  0  0  0  0  0  0  0  0  0  0  0
   -1.0870   -1.4640   -4.5070 H   0  0  0  0  0  0  0  0  0  0  0  0
    2.3570   -2.5500   -6.5360 H   0  0  0  0  0  0  0  0  0  0  0  0
    0.2100   -2.6940   -7.6430 H   0  0  0  0  0  0  0  0  0  0  0  0
   -1.2610   -2.2230   -6.7630 H   0  0  0  0  0  0  0  0  0  0  0  0
    3.0250   -0.2460   -0.0350 C   0  0  0  0  0  3  0  0  0  0  0  0
    2.5570    0.3580    1.0710 O   0  0  0  0  0  0  0  0  0  0  0  0
    3.1390    0.5560    1.7790 H   0  0  0  0  0  0  0  0  0  0  0  0
    4.3370   -0.5430   -0.1040 O   0  0  0  0  0  0  0  0  0  0  0  0
    4.6830   -0.9640   -0.8660 H   0  0  0  0  0  0  0  0  0  0  0  0
   -0.0650    0.0870   -0.0160 C   0  0  0  0  0  2  0  0  0  0  0  0
   -0.1080    1.6130   -0.0290 C   0  0  0  0  0  1  0  0  0  0  0  0
  1  8  2  0  0  0  0
  1 24  1  0  0  0  0
  2  3  1  0  0  0  0
  2  1  1  0  0  0  0
  4  2  1  0  0  0  0
  5  4  2  0  0  0  0
  5  6  1  0  0  0  0
  6  8  1  0  0  0  0
  7  6  1  0  0  0  0
  8 19  1  0  0  0  0
  9  5  1  0  0  0  0
 10  9  2  0  0  0  0
 11 12  1  0  0  0  0
 11  9  1  0  0  0  0
 12 13  1  6  0  0  0
 12 14  1  0  0  0  0
 13 18  1  0  0  0  0
 14 15  1  0  0  0  0
 14  4  1  0  0  0  0
 16 11  1  0  0  0  0
 17 13  1  0  0  0  0
 19 20  1  0  0  0  0
 20 21  1  0  0  0  0
 22 19  1  0  0  0  0
 23 22  1  0  0  0  0
 25 24  1  0  0  0  0
M  END
>  <REMARK>
  4 active torsions:
  status: ('A' for Active; 'I' for Inactive)
    1  A    between atoms: C_2  and  C_3 
    2  A    between atoms: C_10  and  C_11 
    3  A    between atoms: C_11  and  O_12 
    4  A    between atoms: C_11  and  O_13 
       I    between atoms: C_17  and  N_18 

>  <TORSDO>
F 4

$$$$
C:\Users\siddh\.mgltools\PyRx\Ligands\ZINC000252627812_uff_E=450.45.pdbqt
 OpenBabel04182118313D

 23 24  0  0  1  0  0  0  0  0999 V2000
   -0.0250   -0.0360    0.0010 O   0  0  0  0  0  0  0  0  0  0  0  0
   -0.0180    1.1890    0.0080 C   0  0  0  0  0  0  0  0  0  0  0  0
   -1.1880    1.8710    0.0190 N   0  0  0  0  0  0  0  0  0  0  0  0
   -1.1770    2.9030    0.0230 H   0  0  0  0  0  0  0  0  0  0  0  0
   -2.3820    1.1870    0.0220 N   0  0  0  0  0  0  0  0  0  0  0  0
   -3.5120    1.7990    0.0280 C   0  0  0  0  0  2  0  0  0  0  0  0
   -2.3700    0.1670    0.0190 H   0  0  0  0  0  0  0  0  0  0  0  0
   -4.7750    1.0320    0.0270 C   0  0  0  0  0  0  0  0  0  0  0  0
   -6.0010    1.7160    0.0320 C   0  0  0  0  0  3  0  0  0  0  0  0
   -7.2040    1.0020    0.0390 C   0  0  0  0  0  3  0  0  0  0  0  0
   -7.1920   -0.3980    0.0440 C   0  0  0  0  0  0  0  0  0  0  0  0
   -5.9730   -1.0850    0.0310 C   0  0  0  0  0  3  0  0  0  0  0  0
   -4.7690   -0.3780    0.0230 C   0  0  0  0  0  3  0  0  0  0  0  0
   -8.3510   -1.0810    0.0620 O   0  0  0  0  0  0  0  0  0  0  0  0
   -8.7540   -1.3340    0.9040 H   0  0  0  0  0  0  0  0  0  0  0  0
    1.2850    1.9490    0.0000 C   0  0  0  0  0  2  0  0  0  0  0  0
    2.4710    1.0390   -0.0150 C   0  0  2  0  0  3  0  0  0  0  0  0
    3.0400    0.5410   -1.1260 N   0  0  0  0  0  0  0  0  0  0  0  0
    3.9910   -0.2720   -0.7010 N   0  0  0  0  0  0  0  0  0  0  0  0
    2.8000    0.7410   -2.0590 H   0  0  0  0  0  0  0  0  0  0  0  0
    4.0000   -0.2850    0.6260 N   0  0  0  0  0  0  0  0  0  0  0  0
    3.0540    0.5200    1.0780 N   0  0  0  0  0  0  0  0  0  0  0  0
    2.8170    0.7080    2.0520 H   0  0  0  0  0  0  0  0  0  0  0  0
  1  2  2  0  0  0  0
  2  3  1  0  0  0  0
  3  5  1  0  0  0  0
  3  4  1  0  0  0  0
  5  6  1  0  0  0  0
  7  5  1  0  0  0  0
  8  6  1  0  0  0  0
  8  9  1  0  0  0  0
  9 10  2  0  0  0  0
 10 11  1  0  0  0  0
 11 14  1  0  0  0  0
 12 11  2  0  0  0  0
 13  8  2  0  0  0  0
 13 12  1  0  0  0  0
 14 15  1  0  0  0  0
 16  2  1  0  0  0  0
 17 16  1  6  0  0  0
 17 22  1  0  0  0  0
 18 19  1  0  0  0  0
 18 17  1  0  0  0  0
 19 21  2  0  0  0  0
 20 18  1  0  0  0  0
 21 22  1  0  0  0  0
 22 23  1  0  0  0  0
M  END
>  <REMARK>
  5 active torsions:
  status: ('A' for Active; 'I' for Inactive)
    1  A    between atoms: C_2  and  C_3 
       I    between atoms: C_2  and  N_10 
    2  A    between atoms: C_3  and  C_4 
    3  A    between atoms: N_10  and  N_11 
    4  A    between atoms: C_13  and  C_14 
    5  A    between atoms: C_17  and  O_18 

>  <TORSDO>
F 5

$$$$
C:\Users\siddh\.mgltools\PyRx\Ligands\ZINC000252493901_uff_E=112.70.pdbqt
 OpenBabel04182118313D

 24 25  0  0  1  0  0  0  0  0999 V2000
   -1.3140   -0.3950    0.1940 N   0  0  0  0  0  0  0  0  0  0  0  0
   -1.5500   -1.7930    0.1720 C   0  0  2  0  0  3  0  0  0  0  0  0
   -0.5060   -2.6670    0.1340 N   0  0  0  0  0  0  0  0  0  0  0  0
    0.4480   -2.3130    0.1930 H   0  0  0  0  0  0  0  0  0  0  0  0
   -0.7180   -4.0030    0.0190 C   0  0  0  0  0  2  0  0  0  0  0  0
   -2.0210   -4.4900   -0.0840 C   0  0  0  0  0  0  0  0  0  0  0  0
   -2.2680   -5.8670   -0.2990 N   0  0  0  0  0  0  0  0  0  0  0  0
   -3.5950   -6.3780   -0.6060 C   0  0  1  0  0  3  0  0  0  0  0  0
   -4.6960   -5.3470   -0.4060 C   0  0  0  0  0  0  0  0  0  0  0  0
   -5.8630   -5.6920   -0.5240 O   0  0  0  0  0  0  0  0  0  0  0  0
   -4.4140   -4.0490   -0.1200 N   0  0  0  0  0  0  0  0  0  0  0  0
   -3.0800   -3.5880   -0.0150 C   0  0  0  0  0  0  0  0  0  0  0  0
   -2.8270   -2.2590    0.1170 N   0  0  0  0  0  0  0  0  0  0  0  0
   -3.6060   -1.6030    0.1750 H   0  0  0  0  0  0  0  0  0  0  0  0
   -2.1230    0.2460    0.2040 H   0  0  0  0  0  0  0  0  0  0  0  0
   -1.4670   -6.5170   -0.3490 H   0  0  0  0  0  0  0  0  0  0  0  0
   -5.1870   -3.3740   -0.0130 H   0  0  0  0  0  0  0  0  0  0  0  0
   -3.6170   -6.8490   -2.0420 C   0  0  0  0  0  3  0  0  0  0  0  0
   -4.7270   -7.4140   -2.5540 O   0  0  0  0  0  0  0  0  0  0  0  0
   -4.7370   -7.7040   -3.4450 H   0  0  0  0  0  0  0  0  0  0  0  0
   -2.5380   -6.6790   -2.8350 O   0  0  0  0  0  0  0  0  0  0  0  0
   -1.7610   -6.2870   -2.4890 H   0  0  0  0  0  0  0  0  0  0  0  0
    0.0330    0.1340    0.1210 C   0  0  0  0  0  2  0  0  0  0  0  0
    0.0210    1.6580    0.0620 C   0  0  0  0  0  1  0  0  0  0  0  0
  1 15  1  0  0  0  0
  2  1  1  6  0  0  0
  3  2  1  0  0  0  0
  3  4  1  0  0  0  0
  5  3  1  0  0  0  0
  6 12  2  0  0  0  0
  6  5  1  0  0  0  0
  7  6  1  0  0  0  0
  8 18  1  6  0  0  0
  8  9  1  0  0  0  0
  8  7  1  0  0  0  0
  9 11  1  0  0  0  0
 10  9  2  0  0  0  0
 11 12  1  0  0  0  0
 11 17  1  0  0  0  0
 12 13  1  0  0  0  0
 13  2  1  0  0  0  0
 13 14  1  0  0  0  0
 16  7  1  0  0  0  0
 19 18  1  0  0  0  0
 20 19  1  0  0  0  0
 21 22  1  0  0  0  0
 21 18  1  0  0  0  0
 23  1  1  0  0  0  0
 24 23  1  0  0  0  0
M  END
>  <REMARK>
  4 active torsions:
  status: ('A' for Active; 'I' for Inactive)
    1  A    between atoms: C_2  and  N_3 
       I    between atoms: N_3  and  C_4 
    2  A    between atoms: C_10  and  C_11 
    3  A    between atoms: C_11  and  O_12 
    4  A    between atoms: C_11  and  O_13 

>  <TORSDO>
F 4

$$$$
C:\Users\siddh\.mgltools\PyRx\Ligands\ZINC000252493900_uff_E=112.08.pdbqt
 OpenBabel04182118313D

 24 25  0  0  1  0  0  0  0  0999 V2000
   -1.3250   -0.3900   -0.1780 N   0  0  0  0  0  0  0  0  0  0  0  0
   -1.5580   -1.7880   -0.1610 C   0  0  1  0  0  3  0  0  0  0  0  0
   -0.5100   -2.6590   -0.1340 N   0  0  0  0  0  0  0  0  0  0  0  0
    0.4420   -2.3000   -0.2000 H   0  0  0  0  0  0  0  0  0  0  0  0
   -0.7150   -3.9950   -0.0220 C   0  0  0  0  0  2  0  0  0  0  0  0
   -2.0160   -4.4870    0.0890 C   0  0  0  0  0  0  0  0  0  0  0  0
   -2.2540   -5.8670    0.3000 N   0  0  0  0  0  0  0  0  0  0  0  0
   -3.5780   -6.3880    0.6050 C   0  0  2  0  0  3  0  0  0  0  0  0
   -4.6850   -5.3600    0.4180 C   0  0  0  0  0  0  0  0  0  0  0  0
   -5.8490   -5.7130    0.5380 O   0  0  0  0  0  0  0  0  0  0  0  0
   -4.4100   -4.0580    0.1410 N   0  0  0  0  0  0  0  0  0  0  0  0
   -3.0790   -3.5900    0.0310 C   0  0  0  0  0  0  0  0  0  0  0  0
   -2.8330   -2.2590   -0.0970 N   0  0  0  0  0  0  0  0  0  0  0  0
   -3.6140   -1.6050   -0.1460 H   0  0  0  0  0  0  0  0  0  0  0  0
   -2.1340    0.2500   -0.1750 H   0  0  0  0  0  0  0  0  0  0  0  0
   -1.4500   -6.5130    0.3440 H   0  0  0  0  0  0  0  0  0  0  0  0
   -5.1870   -3.3860    0.0430 H   0  0  0  0  0  0  0  0  0  0  0  0
   -3.5960   -6.8730    2.0360 C   0  0  0  0  0  3  0  0  0  0  0  0
   -2.5210   -6.6950    2.8330 O   0  0  0  0  0  0  0  0  0  0  0  0
   -2.5390   -6.9980    3.7190 H   0  0  0  0  0  0  0  0  0  0  0  0
   -4.6980   -7.4610    2.5390 O   0  0  0  0  0  0  0  0  0  0  0  0
   -5.4500   -7.5890    1.9950 H   0  0  0  0  0  0  0  0  0  0  0  0
    0.0230    0.1400   -0.1170 C   0  0  0  0  0  2  0  0  0  0  0  0
    0.0130    1.6630   -0.0440 C   0  0  0  0  0  1  0  0  0  0  0  0
  1 15  1  0  0  0  0
  1 23  1  0  0  0  0
  2  1  1  1  0  0  0
  2  3  1  0  0  0  0
  2 13  1  0  0  0  0
  3  5  1  0  0  0  0
  4  3  1  0  0  0  0
  5  6  1  0  0  0  0
  6  7  1  0  0  0  0
  7 16  1  0  0  0  0
  7  8  1  0  0  0  0
  8 18  1  1  0  0  0
  9 10  2  0  0  0  0
  9  8  1  0  0  0  0
 11  9  1  0  0  0  0
 12  6  2  0  0  0  0
 12 11  1  0  0  0  0
 13 12  1  0  0  0  0
 14 13  1  0  0  0  0
 17 11  1  0  0  0  0
 18 21  1  0  0  0  0
 18 19  1  0  0  0  0
 19 20  1  0  0  0  0
 22 21  1  0  0  0  0
 23 24  1  0  0  0  0
M  END
>  <REMARK>
  4 active torsions:
  status: ('A' for Active; 'I' for Inactive)
    1  A    between atoms: C_2  and  N_3 
       I    between atoms: N_3  and  C_4 
    2  A    between atoms: C_10  and  C_11 
    3  A    between atoms: C_11  and  O_12 
    4  A    between atoms: C_11  and  O_13 

>  <TORSDO>
F 4

$$$$
C:\Users\siddh\.mgltools\PyRx\Ligands\ZINC000252481740_uff_E=400.44.pdbqt
 OpenBabel04182118313D

 20 21  0  0  1  0  0  0  0  0999 V2000
    0.7290   -2.0570    1.2470 C   0  0  2  0  0  3  0  0  0  0  0  0
    1.3740   -2.5470    2.5660 C   0  0  0  0  0  2  0  0  0  0  0  0
    2.8100   -2.2770    2.5080 N   0  0  0  0  0  0  0  0  0  0  0  0
    3.6260   -2.0430    3.5200 N   0  0  0  0  0  2  0  0  0  0  0  0
    4.8710   -1.9080    3.0710 N   0  0  0  0  0  0  0  0  0  0  0  0
    5.6980   -1.7150    3.6350 H   0  0  0  0  0  0  0  0  0  0  0  0
    4.8370   -2.0730    1.7280 C   0  0  0  0  0  0  0  0  0  0  0  0
    3.5210   -2.3100    1.3780 C   0  0  0  0  0  0  0  0  0  0  0  0
    2.8400   -2.5760    0.1000 C   0  0  0  0  0  0  0  0  0  0  0  0
    3.4620   -2.8440   -0.9150 O   0  0  0  0  0  0  0  0  0  0  0  0
    1.4770   -2.5570    0.0880 N   0  0  0  0  0  0  0  0  0  0  0  0
    0.9690   -2.7930   -0.7780 H   0  0  0  0  0  0  0  0  0  0  0  0
    6.0260   -1.9770    0.8630 C   0  0  0  0  0  3  0  0  0  0  0  0
    7.2290   -1.7210    1.4100 O   0  0  0  0  0  0  0  0  0  0  0  0
    7.9880   -1.6580    0.8640 H   0  0  0  0  0  0  0  0  0  0  0  0
    5.9270   -2.1180   -0.4710 O   0  0  0  0  0  0  0  0  0  0  0  0
    5.0950   -2.2960   -0.8620 H   0  0  0  0  0  0  0  0  0  0  0  0
    0.7220   -0.5150    1.2260 C   0  0  0  0  0  2  0  0  0  0  0  0
   -0.0020    0.0240   -0.0100 C   0  0  0  0  0  2  0  0  0  0  0  0
   -0.0240    1.5460    0.0000 C   0  0  0  0  0  1  0  0  0  0  0  0
  1 18  1  1  0  0  0
  1  2  1  0  0  0  0
  3  2  1  0  0  0  0
  3  4  1  0  0  0  0
  5  4  1  0  0  0  0
  5  6  1  0  0  0  0
  7  5  1  0  0  0  0
  8  7  2  0  0  0  0
  8  3  1  0  0  0  0
  9  8  1  0  0  0  0
 10  9  2  0  0  0  0
 11  9  1  0  0  0  0
 11  1  1  0  0  0  0
 12 11  1  0  0  0  0
 13 14  1  0  0  0  0
 13  7  1  0  0  0  0
 15 14  1  0  0  0  0
 16 13  1  0  0  0  0
 17 16  1  0  0  0  0
 19 20  1  0  0  0  0
 19 18  1  0  0  0  0
M  END
>  <REMARK>
  5 active torsions:
  status: ('A' for Active; 'I' for Inactive)
    1  A    between atoms: C_2  and  C_3 
    2  A    between atoms: C_3  and  C_4 
    3  A    between atoms: C_10  and  C_11 
    4  A    between atoms: C_11  and  O_12 
    5  A    between atoms: C_11  and  O_13 

>  <TORSDO>
F 5

$$$$
C:\Users\siddh\.mgltools\PyRx\Ligands\ZINC000252452703_uff_E=92.96.pdbqt
 OpenBabel04182118313D

 23 23  0  0  0  0  0  0  0  0999 V2000
   -2.4310   -2.8360    0.0090 N   0  0  0  0  0  0  0  0  0  0  0  0
   -3.3200   -2.3350    0.0190 H   0  0  0  0  0  0  0  0  0  0  0  0
   -2.4290   -4.1210    0.0020 C   0  0  0  0  0  2  0  0  0  0  0  0
   -3.6960   -4.8670    0.0100 C   0  0  0  0  0  0  0  0  0  0  0  0
   -3.6750   -6.2680    0.0060 C   0  0  0  0  0  3  0  0  0  0  0  0
   -4.8720   -6.9860    0.0140 C   0  0  0  0  0  3  0  0  0  0  0  0
   -6.1030   -6.3100    0.0250 C   0  0  0  0  0  0  0  0  0  0  0  0
   -6.1200   -4.9060    0.0280 C   0  0  0  0  0  3  0  0  0  0  0  0
   -4.9260   -4.1900    0.0210 C   0  0  0  0  0  3  0  0  0  0  0  0
   -7.3700   -7.0660    0.0330 C   0  0  0  0  0  3  0  0  0  0  0  0
   -8.5500   -6.4160    0.0420 O   0  0  0  0  0  0  0  0  0  0  0  0
   -9.3520   -6.9000    0.0470 H   0  0  0  0  0  0  0  0  0  0  0  0
   -7.3590   -8.4130    0.0310 O   0  0  0  0  0  0  0  0  0  0  0  0
   -6.5430   -8.8740    0.0240 H   0  0  0  0  0  0  0  0  0  0  0  0
   -1.2550   -2.1240    0.0020 N   0  0  0  0  0  0  0  0  0  0  0  0
   -1.2770   -0.7690    0.0100 C   0  0  0  0  0  0  0  0  0  0  0  0
   -2.3460   -0.1740    0.0230 O   0  0  0  0  0  0  0  0  0  0  0  0
   -0.3540   -2.6250   -0.0090 H   0  0  0  0  0  0  0  0  0  0  0  0
   -0.0060   -0.0030    0.0020 C   0  0  0  0  0  0  0  0  0  0  0  0
   -0.0150    1.3500    0.0080 N   0  0  0  0  0  0  0  0  0  0  0  0
    0.8720    1.8730    0.0030 H   0  0  0  0  0  0  0  0  0  0  0  0
   -0.9030    1.8720    0.0180 H   0  0  0  0  0  0  0  0  0  0  0  0
    1.0620   -0.5980   -0.0100 O   0  0  0  0  0  0  0  0  0  0  0  0
  1  2  1  0  0  0  0
  3  1  1  0  0  0  0
  3  4  1  0  0  0  0
  4  9  1  0  0  0  0
  5  4  2  0  0  0  0
  5  6  1  0  0  0  0
  6  7  2  0  0  0  0
  7  8  1  0  0  0  0
  7 10  1  0  0  0  0
  9  8  2  0  0  0  0
 10 11  1  0  0  0  0
 11 12  1  0  0  0  0
 13 10  1  0  0  0  0
 14 13  1  0  0  0  0
 15  1  1  0  0  0  0
 15 16  1  0  0  0  0
 16 17  2  0  0  0  0
 18 15  1  0  0  0  0
 19 20  1  0  0  0  0
 19 16  1  0  0  0  0
 20 22  1  0  0  0  0
 21 20  1  0  0  0  0
 23 19  2  0  0  0  0
M  END
>  <REMARK>
  6 active torsions:
  status: ('A' for Active; 'I' for Inactive)
       I    between atoms: N_1  and  C_2 
    1  A    between atoms: C_2  and  C_4 
       I    between atoms: C_4  and  N_6 
    2  A    between atoms: N_6  and  N_7 
    3  A    between atoms: C_9  and  C_10 
    4  A    between atoms: C_13  and  C_14 
    5  A    between atoms: C_14  and  O_15 
    6  A    between atoms: C_14  and  O_16 

>  <TORSDO>
F 6

$$$$
C:\Users\siddh\.mgltools\PyRx\Ligands\ZINC000251460820_uff_E=1449.76.pdbqt
 OpenBabel04182118313D

 20 21  0  0  1  0  0  0  0  0999 V2000
    0.8090   -0.4100   -1.1800 C   0  0  2  0  0  3  0  0  0  0  0  0
    0.7070   -1.9000   -1.5300 C   0  0  0  0  0  0  0  0  0  0  0  0
   -0.3990   -2.4110   -1.6370 O   0  0  0  0  0  0  0  0  0  0  0  0
    1.8120   -2.6770   -1.7070 N   0  0  0  0  0  0  0  0  0  0  0  0
    3.1560   -2.1410   -1.6980 C   0  0  0  0  0  2  0  0  0  0  0  0
    3.1560   -0.6450   -1.9770 C   0  0  0  0  0  2  0  0  0  0  0  0
    2.2310    0.0140   -1.0660 N   0  0  0  0  0  0  0  0  0  0  0  0
    2.6830    1.0070   -0.2090 C   0  0  0  0  0  0  0  0  0  0  0  0
    1.9020    1.6250    0.4950 O   0  0  0  0  0  0  0  0  0  0  0  0
    1.6930   -3.6910   -1.8510 H   0  0  0  0  0  0  0  0  0  0  0  0
   -0.0940   -0.1440    0.0640 C   0  0  0  0  0  2  0  0  0  0  0  0
    0.3910   -0.8600    1.3320 C   0  0  0  0  0  1  0  0  0  0  0  0
    4.1590    1.3770   -0.1280 C   0  0  1  0  0  3  0  0  0  0  0  0
    4.3920    2.4690    0.9320 C   0  0  1  0  0  3  0  0  0  0  0  0
    4.9170    1.0550    1.1510 C   0  0  0  0  0  2  0  0  0  0  0  0
    5.5300    3.4110    0.6760 C   0  0  0  0  0  3  0  0  0  0  0  0
    6.5250    3.5380    1.5740 O   0  0  0  0  0  0  0  0  0  0  0  0
    7.2340    4.1280    1.4080 H   0  0  0  0  0  0  0  0  0  0  0  0
    5.5410    4.1580   -0.4440 O   0  0  0  0  0  0  0  0  0  0  0  0
    4.8500    4.0720   -1.0710 H   0  0  0  0  0  0  0  0  0  0  0  0
  1  7  1  0  0  0  0
  1 11  1  1  0  0  0
  2  1  1  0  0  0  0
  3  2  2  0  0  0  0
  4  5  1  0  0  0  0
  4  2  1  0  0  0  0
  6  5  1  0  0  0  0
  6  7  1  0  0  0  0
  7  8  1  0  0  0  0
  8  9  2  0  0  0  0
 10  4  1  0  0  0  0
 11 12  1  0  0  0  0
 13  8  1  1  0  0  0
 13 14  1  0  0  0  0
 13 15  1  0  0  0  0
 14 16  1  6  0  0  0
 14 15  1  0  0  0  0
 16 17  1  0  0  0  0
 18 17  1  0  0  0  0
 19 16  1  0  0  0  0
 20 19  1  0  0  0  0
M  END
>  <REMARK>
  5 active torsions:
  status: ('A' for Active; 'I' for Inactive)
    1  A    between atoms: C_2  and  C_3 
       I    between atoms: N_9  and  C_10 
    2  A    between atoms: C_10  and  C_12 
    3  A    between atoms: C_14  and  C_15 
    4  A    between atoms: C_15  and  O_16 
    5  A    between atoms: C_15  and  O_17 

>  <TORSDO>
F 5

$$$$
C:\Users\siddh\.mgltools\PyRx\Ligands\ZINC000250556822_uff_E=1405.26.pdbqt
 OpenBabel04182118313D

 20 21  0  0  1  0  0  0  0  0999 V2000
   -2.2920   -2.9480   -0.3350 N   0  0  0  0  0  0  0  0  0  0  0  0
   -3.3540   -2.7270   -1.1600 C   0  0  0  0  0  0  0  0  0  0  0  0
   -3.3030   -1.8340   -1.9930 O   0  0  0  0  0  0  0  0  0  0  0  0
   -2.3420   -3.7230    0.3460 H   0  0  0  0  0  0  0  0  0  0  0  0
   -1.0540   -2.1890   -0.4630 C   0  0  1  0  0  3  0  0  0  0  0  0
   -1.2270   -0.7150   -0.0250 C   0  0  0  0  0  2  0  0  0  0  0  0
    0.0350    0.0300   -0.0010 N   0  0  0  0  0  0  0  0  0  0  0  0
   -0.0470    1.4830    0.0560 C   0  0  0  0  0  1  0  0  0  0  0  0
    1.2550   -0.6080   -0.0370 C   0  0  0  0  0  0  0  0  0  0  0  0
    1.3710   -2.1130   -0.0030 C   0  0  0  0  0  2  0  0  0  0  0  0
    2.2890    0.0440   -0.1140 O   0  0  0  0  0  0  0  0  0  0  0  0
    0.0580   -2.7990    0.3730 C   0  0  0  0  0  2  0  0  0  0  0  0
   -4.5760   -3.6280   -1.0700 C   0  0  2  0  0  3  0  0  0  0  0  0
   -5.8110   -3.5030   -1.9870 C   0  0  1  0  0  3  0  0  0  0  0  0
   -5.7610   -2.7690   -0.6530 C   0  0  0  0  0  2  0  0  0  0  0  0
   -5.5410   -2.7300   -3.2500 C   0  0  0  0  0  3  0  0  0  0  0  0
   -6.2450   -1.6140   -3.5200 O   0  0  0  0  0  0  0  0  0  0  0  0
   -6.0770   -1.1330   -4.3060 H   0  0  0  0  0  0  0  0  0  0  0  0
   -4.6130   -3.1630   -4.1250 O   0  0  0  0  0  0  0  0  0  0  0  0
   -4.1210   -3.9380   -3.9410 H   0  0  0  0  0  0  0  0  0  0  0  0
  1  4  1  0  0  0  0
  2  1  1  0  0  0  0
  3  2  2  0  0  0  0
  5  1  1  1  0  0  0
  5  6  1  0  0  0  0
  5 12  1  0  0  0  0
  6  7  1  0  0  0  0
  7  8  1  0  0  0  0
  9 10  1  0  0  0  0
  9  7  1  0  0  0  0
 10 12  1  0  0  0  0
 11  9  2  0  0  0  0
 13  2  1  6  0  0  0
 13 15  1  0  0  0  0
 14 16  1  6  0  0  0
 14 13  1  0  0  0  0
 14 15  1  0  0  0  0
 17 16  1  0  0  0  0
 18 17  1  0  0  0  0
 19 20  1  0  0  0  0
 19 16  1  0  0  0  0
M  END
>  <REMARK>
  5 active torsions:
  status: ('A' for Active; 'I' for Inactive)
    1  A    between atoms: C_4  and  N_5 
       I    between atoms: N_5  and  C_6 
    2  A    between atoms: C_6  and  C_8 
    3  A    between atoms: C_10  and  C_11 
    4  A    between atoms: C_11  and  O_12 
    5  A    between atoms: C_11  and  O_13 

>  <TORSDO>
F 5

$$$$
C:\Users\siddh\.mgltools\PyRx\Ligands\ZINC000250556820_uff_E=1409.90.pdbqt
 OpenBabel04182118313D

 20 21  0  0  1  0  0  0  0  0999 V2000
   -2.3230   -2.9310   -0.3080 N   0  0  0  0  0  0  0  0  0  0  0  0
   -3.3670   -2.7990   -1.1730 C   0  0  0  0  0  0  0  0  0  0  0  0
   -3.2750   -2.0500   -2.1360 O   0  0  0  0  0  0  0  0  0  0  0  0
   -2.4030   -3.6110    0.4650 H   0  0  0  0  0  0  0  0  0  0  0  0
   -1.0750   -2.1990   -0.4860 C   0  0  1  0  0  3  0  0  0  0  0  0
   -1.2400   -0.7170   -0.0720 C   0  0  0  0  0  2  0  0  0  0  0  0
    0.0230    0.0250   -0.0330 N   0  0  0  0  0  0  0  0  0  0  0  0
   -0.0560    1.4780    0.0430 C   0  0  0  0  0  1  0  0  0  0  0  0
    1.2420   -0.6140   -0.0590 C   0  0  0  0  0  0  0  0  0  0  0  0
    1.3550   -2.1190   -0.0240 C   0  0  0  0  0  2  0  0  0  0  0  0
    2.2780    0.0360   -0.1220 O   0  0  0  0  0  0  0  0  0  0  0  0
    0.0380   -2.8000    0.3530 C   0  0  0  0  0  2  0  0  0  0  0  0
   -4.6320   -3.6040   -0.9420 C   0  0  1  0  0  3  0  0  0  0  0  0
   -5.6730   -3.5620   -2.0870 C   0  0  1  0  0  3  0  0  0  0  0  0
   -4.8220   -4.8030   -1.8520 C   0  0  0  0  0  2  0  0  0  0  0  0
   -7.0760   -3.5960   -1.5550 C   0  0  0  0  0  3  0  0  0  0  0  0
   -7.9070   -4.5940   -1.9070 O   0  0  0  0  0  0  0  0  0  0  0  0
   -8.7830   -4.6140   -1.5740 H   0  0  0  0  0  0  0  0  0  0  0  0
   -7.5180   -2.6070   -0.7540 O   0  0  0  0  0  0  0  0  0  0  0  0
   -6.9420   -1.9110   -0.5070 H   0  0  0  0  0  0  0  0  0  0  0  0
  1  4  1  0  0  0  0
  2  1  1  0  0  0  0
  3  2  2  0  0  0  0
  5  1  1  1  0  0  0
  5  6  1  0  0  0  0
  5 12  1  0  0  0  0
  6  7  1  0  0  0  0
  7  8  1  0  0  0  0
  9  7  1  0  0  0  0
  9 10  1  0  0  0  0
 10 12  1  0  0  0  0
 11  9  2  0  0  0  0
 13  2  1  6  0  0  0
 14 15  1  0  0  0  0
 14 16  1  1  0  0  0
 14 13  1  0  0  0  0
 15 13  1  0  0  0  0
 16 19  1  0  0  0  0
 17 18  1  0  0  0  0
 17 16  1  0  0  0  0
 19 20  1  0  0  0  0
M  END
>  <REMARK>
  5 active torsions:
  status: ('A' for Active; 'I' for Inactive)
    1  A    between atoms: C_4  and  N_5 
       I    between atoms: N_5  and  C_6 
    2  A    between atoms: C_6  and  C_8 
    3  A    between atoms: C_10  and  C_11 
    4  A    between atoms: C_11  and  O_12 
    5  A    between atoms: C_11  and  O_13 

>  <TORSDO>
F 5

$$$$
C:\Users\siddh\.mgltools\PyRx\Ligands\ZINC000241160516_uff_E=402.88.pdbqt
 OpenBabel04182118313D

 20 21  0  0  1  0  0  0  0  0999 V2000
   -1.6050    1.8790    0.0190 C   0  0  0  0  0  0  0  0  0  0  0  0
   -2.7300    1.4000    0.0540 O   0  0  0  0  0  0  0  0  0  0  0  0
   -1.4560    3.2520    0.1340 N   0  0  0  0  0  0  0  0  0  0  0  0
   -0.1890    3.9620   -0.0260 C   0  0  0  0  0  2  0  0  0  0  0  0
   -0.3660    5.0670   -1.0740 C   0  0  0  0  0  2  0  0  0  0  0  0
   -1.4590    5.9690   -0.6440 N   0  0  0  0  0  0  0  0  0  0  0  0
   -2.7270    5.2080   -0.6290 C   0  0  0  0  0  2  0  0  0  0  0  0
   -2.6190    4.0960    0.4190 C   0  0  0  0  0  2  0  0  0  0  0  0
   -0.4780    0.8980   -0.1020 C   0  0  0  0  0  3  0  0  0  0  0  0
   -0.7730   -0.3970   -0.3290 O   0  0  0  0  0  0  0  0  0  0  0  0
   -1.2660   -1.0980   -0.7090 H   0  0  0  0  0  0  0  0  0  0  0  0
    0.8070    1.2250    0.1170 O   0  0  0  0  0  0  0  0  0  0  0  0
    1.0420    2.1180    0.2780 H   0  0  0  0  0  0  0  0  0  0  0  0
   -1.5180    7.2190   -1.4410 C   0  0  2  0  0  3  0  0  0  0  0  0
   -0.2320    8.0770   -1.3180 C   0  0  1  0  0  3  0  0  0  0  0  0
   -0.7050    9.5400   -1.4600 C   0  0  0  0  0  2  0  0  0  0  0  0
   -2.1960    9.4540   -1.7410 C   0  0  0  0  0  2  0  0  0  0  0  0
   -2.5980    8.2030   -0.9790 C   0  0  0  0  0  2  0  0  0  0  0  0
    0.3400    7.9070   -0.0440 O   0  0  0  0  0  0  0  0  0  0  0  0
    1.2560    8.2840   -0.0900 H   0  0  0  0  0  0  0  0  0  0  0  0
  1  2  2  0  0  0  0
  1  3  1  0  0  0  0
  3  8  1  0  0  0  0
  4  3  1  0  0  0  0
  5  6  1  0  0  0  0
  5  4  1  0  0  0  0
  6  7  1  0  0  0  0
  7  8  1  0  0  0  0
  9  1  1  0  0  0  0
  9 12  1  0  0  0  0
 10  9  1  0  0  0  0
 11 10  1  0  0  0  0
 12 13  1  0  0  0  0
 14 15  1  0  0  0  0
 14 18  1  1  0  0  0
 14  6  1  0  0  0  0
 15 19  1  1  0  0  0
 16 15  1  0  0  0  0
 17 16  1  0  0  0  0
 17 18  1  0  0  0  0
 20 19  1  0  0  0  0
M  END
>  <REMARK>
  5 active torsions:
  status: ('A' for Active; 'I' for Inactive)
    1  A    between atoms: O_1  and  C_2 
    2  A    between atoms: C_2  and  O_3 
    3  A    between atoms: C_2  and  C_4 
       I    between atoms: C_4  and  N_6 
    4  A    between atoms: N_9  and  C_10 
    5  A    between atoms: C_14  and  O_15 

>  <TORSDO>
F 5

$$$$
C:\Users\siddh\.mgltools\PyRx\Ligands\ZINC000241160515_uff_E=412.86.pdbqt
 OpenBabel04182118313D

 20 21  0  0  1  0  0  0  0  0999 V2000
   -1.6200    1.8710    0.0810 C   0  0  0  0  0  0  0  0  0  0  0  0
   -2.7530    1.4090    0.0810 O   0  0  0  0  0  0  0  0  0  0  0  0
   -1.4570    3.2410    0.2150 N   0  0  0  0  0  0  0  0  0  0  0  0
   -0.1780    3.9390    0.1070 C   0  0  0  0  0  2  0  0  0  0  0  0
   -0.2920    4.9690   -1.0120 C   0  0  0  0  0  2  0  0  0  0  0  0
   -1.4020    5.9030   -0.7130 N   0  0  0  0  0  0  0  0  0  0  0  0
   -2.6860    5.1770   -0.6610 C   0  0  0  0  0  2  0  0  0  0  0  0
   -2.6180    4.1060    0.4380 C   0  0  0  0  0  2  0  0  0  0  0  0
   -0.5080    0.8720   -0.0510 C   0  0  0  0  0  3  0  0  0  0  0  0
   -0.8240   -0.4110   -0.3150 O   0  0  0  0  0  0  0  0  0  0  0  0
   -1.3400   -1.0650   -0.7450 H   0  0  0  0  0  0  0  0  0  0  0  0
    0.7840    1.1700    0.1670 O   0  0  0  0  0  0  0  0  0  0  0  0
    1.0360    2.0540    0.3530 H   0  0  0  0  0  0  0  0  0  0  0  0
   -1.4540    7.1200   -1.5650 C   0  0  1  0  0  3  0  0  0  0  0  0
   -0.2770    8.1050   -1.3300 C   0  0  2  0  0  3  0  0  0  0  0  0
    0.4760    8.1200   -2.6600 C   0  0  0  0  0  2  0  0  0  0  0  0
   -0.6770    8.0390   -3.6560 C   0  0  0  0  0  2  0  0  0  0  0  0
   -1.4600    6.8610   -3.0930 C   0  0  0  0  0  2  0  0  0  0  0  0
    0.5200    7.7820   -0.2190 O   0  0  0  0  0  0  0  0  0  0  0  0
    1.3230    8.3630   -0.2580 H   0  0  0  0  0  0  0  0  0  0  0  0
  1  2  2  0  0  0  0
  1  3  1  0  0  0  0
  3  8  1  0  0  0  0
  4  3  1  0  0  0  0
  5  6  1  0  0  0  0
  5  4  1  0  0  0  0
  6  7  1  0  0  0  0
  7  8  1  0  0  0  0
  9  1  1  0  0  0  0
  9 12  1  0  0  0  0
 10  9  1  0  0  0  0
 11 10  1  0  0  0  0
 12 13  1  0  0  0  0
 14 18  1  6  0  0  0
 14 15  1  0  0  0  0
 14  6  1  0  0  0  0
 15 19  1  1  0  0  0
 16 15  1  0  0  0  0
 17 18  1  0  0  0  0
 17 16  1  0  0  0  0
 20 19  1  0  0  0  0
M  END
>  <REMARK>
  5 active torsions:
  status: ('A' for Active; 'I' for Inactive)
    1  A    between atoms: O_1  and  C_2 
    2  A    between atoms: C_2  and  O_3 
    3  A    between atoms: C_2  and  C_4 
       I    between atoms: C_4  and  N_6 
    4  A    between atoms: N_9  and  C_10 
    5  A    between atoms: C_14  and  O_15 

>  <TORSDO>
F 5

$$$$
C:\Users\siddh\.mgltools\PyRx\Ligands\ZINC000238856566_uff_E=401.19.pdbqt
 OpenBabel04182118313D

 22 23  0  0  1  0  0  0  0  0999 V2000
   -0.0260   -3.1620   -1.7520 C   0  0  1  0  0  3  0  0  0  0  0  0
    1.4140   -3.6980   -1.8690 C   0  0  0  0  0  2  0  0  0  0  0  0
    1.4030   -5.0470   -2.4770 N   0  0  0  0  0  0  0  0  0  0  0  0
    0.5500   -5.9080   -1.6210 C   0  0  0  0  0  2  0  0  0  0  0  0
   -0.8600   -5.3090   -1.5290 C   0  0  0  0  0  2  0  0  0  0  0  0
   -0.8210   -4.0180   -0.9520 O   0  0  0  0  0  0  0  0  0  0  0  0
    0.0130   -1.7980   -1.1320 C   0  0  2  0  0  3  0  0  0  0  0  0
   -0.3190   -0.6620   -1.7830 N   0  0  0  0  0  0  0  0  0  0  0  0
   -0.0490    0.2960   -0.8760 C   0  0  2  0  0  3  0  0  0  0  0  0
   -0.6840   -0.5560   -2.7290 H   0  0  0  0  0  0  0  0  0  0  0  0
   -0.1960    1.7590   -1.1270 C   0  0  0  0  0  1  0  0  0  0  0  0
    0.4060   -0.2340    0.2710 N   0  0  0  0  0  0  0  0  0  0  0  0
    0.4530   -1.5450    0.1170 N   0  0  0  0  0  0  0  0  0  0  0  0
    0.6920    0.2750    1.1360 H   0  0  0  0  0  0  0  0  0  0  0  0
    0.7600   -2.2300    0.8070 H   0  0  0  0  0  0  0  0  0  0  0  0
    2.7690   -5.6320   -2.6390 C   0  0  2  0  0  3  0  0  0  0  0  0
    3.7470   -4.6820   -3.3630 C   0  0  0  0  0  1  0  0  0  0  0  0
    2.7310   -6.9090   -3.4580 C   0  0  0  0  0  3  0  0  0  0  0  0
    1.6040   -7.3060   -4.0820 O   0  0  0  0  0  0  0  0  0  0  0  0
    1.6000   -8.0980   -4.5830 H   0  0  0  0  0  0  0  0  0  0  0  0
    3.8530   -7.6420   -3.6010 O   0  0  0  0  0  0  0  0  0  0  0  0
    4.6430   -7.3770   -3.1730 H   0  0  0  0  0  0  0  0  0  0  0  0
  1  2  1  1  0  0  0
  1  7  1  0  0  0  0
  1  6  1  0  0  0  0
  3  2  1  0  0  0  0
  3  4  1  0  0  0  0
  4  5  1  0  0  0  0
  5  6  1  0  0  0  0
  7  8  1  6  0  0  0
  7 13  1  0  0  0  0
  8  9  1  0  0  0  0
  9 11  1  6  0  0  0
  9 12  1  0  0  0  0
 10  8  1  0  0  0  0
 12 14  1  0  0  0  0
 13 12  1  0  0  0  0
 13 15  1  0  0  0  0
 16 17  1  6  0  0  0
 16  3  1  0  0  0  0
 18 16  1  0  0  0  0
 19 18  1  0  0  0  0
 20 19  1  0  0  0  0
 21 18  1  0  0  0  0
 21 22  1  0  0  0  0
M  END
>  <REMARK>
  5 active torsions:
  status: ('A' for Active; 'I' for Inactive)
    1  A    between atoms: C_5  and  C_6 
    2  A    between atoms: N_8  and  C_9 
    3  A    between atoms: C_9  and  C_11 
    4  A    between atoms: C_11  and  O_12 
    5  A    between atoms: C_11  and  O_13 

>  <TORSDO>
F 5

$$$$
C:\Users\siddh\.mgltools\PyRx\Ligands\ZINC000238855937_uff_E=1370.84.pdbqt
 OpenBabel04182118313D

 18 18  0  0  1  0  0  0  0  0999 V2000
    0.7060   -0.5060   -1.2610 C   0  0  2  0  0  3  0  0  0  0  0  0
    0.0400    0.0240    0.0390 C   0  0  2  0  0  3  0  0  0  0  0  0
   -0.0470    1.5560    0.1150 C   0  0  0  0  0  1  0  0  0  0  0  0
    0.6510   -0.5040    1.1900 O   0  0  0  0  0  0  0  0  0  0  0  0
    1.5570   -0.1060    1.2620 H   0  0  0  0  0  0  0  0  0  0  0  0
    0.5350   -1.9540   -1.3510 N   0  0  0  0  0  0  0  0  0  0  0  0
    0.7680   -2.6290   -2.5110 C   0  0  0  0  0  0  0  0  0  0  0  0
    1.1270   -2.0240   -3.5120 O   0  0  0  0  0  0  0  0  0  0  0  0
    0.1910   -2.4790   -0.5330 H   0  0  0  0  0  0  0  0  0  0  0  0
    0.5680   -4.1350   -2.5460 C   0  0  2  0  0  3  0  0  0  0  0  0
    0.8330   -4.7110   -3.9350 C   0  0  2  0  0  3  0  0  0  0  0  0
   -0.5850   -4.6950   -3.4070 C   0  0  0  0  0  2  0  0  0  0  0  0
    1.4400   -6.1110   -4.0120 C   0  0  0  0  0  1  0  0  0  0  0  0
    2.1750   -0.1330   -1.3660 C   0  0  0  0  0  3  0  0  0  0  0  0
    3.1250   -1.0900   -1.4010 O   0  0  0  0  0  0  0  0  0  0  0  0
    4.0280   -0.8510   -1.4660 H   0  0  0  0  0  0  0  0  0  0  0  0
    2.5460    1.1590   -1.4400 O   0  0  0  0  0  0  0  0  0  0  0  0
    1.8970    1.8350   -1.4170 H   0  0  0  0  0  0  0  0  0  0  0  0
  1 14  1  1  0  0  0
  1  2  1  0  0  0  0
  2  3  1  1  0  0  0
  2  4  1  0  0  0  0
  4  5  1  0  0  0  0
  6  1  1  0  0  0  0
  6  9  1  0  0  0  0
  7  6  1  0  0  0  0
  8  7  2  0  0  0  0
 10  7  1  6  0  0  0
 11 13  1  1  0  0  0
 11 12  1  0  0  0  0
 11 10  1  0  0  0  0
 12 10  1  0  0  0  0
 15 14  1  0  0  0  0
 16 15  1  0  0  0  0
 17 18  1  0  0  0  0
 17 14  1  0  0  0  0
M  END
>  <REMARK>
  7 active torsions:
  status: ('A' for Active; 'I' for Inactive)
    1  A    between atoms: C_2  and  O_3 
    2  A    between atoms: C_2  and  C_4 
    3  A    between atoms: C_4  and  N_5 
    4  A    between atoms: C_4  and  C_12 
       I    between atoms: N_5  and  C_6 
    5  A    between atoms: C_6  and  C_8 
    6  A    between atoms: C_12  and  O_13 
    7  A    between atoms: C_12  and  O_14 

>  <TORSDO>
F 7

$$$$
C:\Users\siddh\.mgltools\PyRx\Ligands\ZINC000237912763_uff_E=279.00.pdbqt
 OpenBabel04182118313D

 20 21  0  0  1  0  0  0  0  0999 V2000
   -1.2500   -0.7860    0.0200 C   0  0  2  0  0  3  0  0  0  0  0  0
   -2.0800   -0.4930    1.3240 C   0  0  0  0  0  2  0  0  0  0  0  0
   -2.1840   -1.8440    1.9610 C   0  0  0  0  0  0  0  0  0  0  0  0
   -2.8070   -2.1740    3.1670 C   0  0  0  0  0  3  0  0  0  0  0  0
   -2.7840   -3.5130    3.5910 C   0  0  0  0  0  3  0  0  0  0  0  0
   -2.1500   -4.4930    2.8030 C   0  0  0  0  0  3  0  0  0  0  0  0
   -1.5350   -4.1330    1.5930 C   0  0  0  0  0  3  0  0  0  0  0  0
   -1.5680   -2.7890    1.2030 C   0  0  0  0  0  0  0  0  0  0  0  0
   -1.0060   -2.2220    0.0550 N   0  0  0  0  0  0  0  0  0  0  0  0
   -0.3240   -2.9640   -0.9950 C   0  0  0  0  0  2  0  0  0  0  0  0
   -1.2870   -3.4610   -2.0310 C   0  0  0  0  0  3  0  0  0  0  0  0
   -2.6050   -3.2010   -1.9300 O   0  0  0  0  0  0  0  0  0  0  0  0
   -3.1960   -3.5170   -2.5840 H   0  0  0  0  0  0  0  0  0  0  0  0
   -0.8240   -4.1560   -3.0870 O   0  0  0  0  0  0  0  0  0  0  0  0
    0.0920   -4.3390   -3.1620 H   0  0  0  0  0  0  0  0  0  0  0  0
    0.0380    0.0150    0.0130 C   0  0  0  0  0  0  0  0  0  0  0  0
   -0.0090    1.3660   -0.0030 N   0  0  0  0  0  0  0  0  0  0  0  0
    0.8650    1.9130   -0.0010 H   0  0  0  0  0  0  0  0  0  0  0  0
   -0.9120    1.8600   -0.0090 H   0  0  0  0  0  0  0  0  0  0  0  0
    1.1200   -0.5500    0.0320 O   0  0  0  0  0  0  0  0  0  0  0  0
  1 16  1  1  0  0  0
  1  9  1  0  0  0  0
  1  2  1  0  0  0  0
  2  3  1  0  0  0  0
  3  4  1  0  0  0  0
  4  5  2  0  0  0  0
  6  5  1  0  0  0  0
  7  6  2  0  0  0  0
  8  7  1  0  0  0  0
  8  3  2  0  0  0  0
  9  8  1  0  0  0  0
 10  9  1  0  0  0  0
 11 12  1  0  0  0  0
 11 10  1  0  0  0  0
 13 12  1  0  0  0  0
 14 11  1  0  0  0  0
 15 14  1  0  0  0  0
 16 20  2  0  0  0  0
 17 18  1  0  0  0  0
 17 16  1  0  0  0  0
 19 17  1  0  0  0  0
M  END
>  <REMARK>
  5 active torsions:
  status: ('A' for Active; 'I' for Inactive)
       I    between atoms: N_1  and  C_2 
    1  A    between atoms: C_2  and  C_4 
    2  A    between atoms: N_12  and  C_13 
    3  A    between atoms: C_13  and  C_14 
    4  A    between atoms: C_14  and  O_15 
    5  A    between atoms: C_14  and  O_16 

>  <TORSDO>
F 5

$$$$
C:\Users\siddh\.mgltools\PyRx\Ligands\ZINC000236766910_uff_E=153.23.pdbqt
 OpenBabel04182118313D

 24 24  0  0  1  0  0  0  0  0999 V2000
   -1.4290   -1.9640    0.0790 N   0  0  0  0  0  0  0  0  0  0  0  0
   -2.5530   -2.6350    0.4700 C   0  0  0  0  0  0  0  0  0  0  0  0
   -3.5460   -2.0010    0.7860 O   0  0  0  0  0  0  0  0  0  0  0  0
   -0.5770   -2.4960   -0.1500 H   0  0  0  0  0  0  0  0  0  0  0  0
   -2.5520   -4.1350    0.5200 C   0  0  0  0  0  0  0  0  0  0  0  0
   -3.5820   -4.9320    1.1160 C   0  0  0  0  0  0  0  0  0  0  0  0
   -3.4640   -6.2880    1.0720 N   0  0  0  0  0  0  0  0  0  0  0  0
   -2.4080   -6.9020    0.4880 C   0  0  0  0  0  3  0  0  0  0  0  0
   -4.1960   -6.8600    1.4940 H   0  0  0  0  0  0  0  0  0  0  0  0
   -1.4020   -6.1340   -0.0810 C   0  0  0  0  0  3  0  0  0  0  0  0
   -1.4960   -4.7820   -0.0500 N   0  0  0  0  0  0  0  0  0  0  0  0
   -0.7480   -4.2280   -0.4690 H   0  0  0  0  0  0  0  0  0  0  0  0
   -4.7140   -4.3880    1.7820 N   0  0  0  0  0  0  0  0  0  0  0  0
   -5.4060   -5.0290    2.1960 H   0  0  0  0  0  0  0  0  0  0  0  0
   -4.8630   -3.3860    1.9290 H   0  0  0  0  0  0  0  0  0  0  0  0
   -1.3820   -0.5060    0.0380 C   0  0  1  0  0  3  0  0  0  0  0  0
    0.0830    0.0150    0.0300 C   0  0  0  0  0  3  0  0  0  0  0  0
    0.1150    1.5550    0.0260 C   0  0  0  0  0  1  0  0  0  0  0  0
    0.8390   -0.4850    1.2760 C   0  0  0  0  0  1  0  0  0  0  0  0
   -2.1510   -0.0240   -1.1670 C   0  0  0  0  0  3  0  0  0  0  0  0
   -1.7880   -0.4160   -2.4040 O   0  0  0  0  0  0  0  0  0  0  0  0
   -2.2670   -0.1160   -3.1500 H   0  0  0  0  0  0  0  0  0  0  0  0
   -3.2010    0.8050   -1.0120 O   0  0  0  0  0  0  0  0  0  0  0  0
   -3.4580    1.0810   -0.1540 H   0  0  0  0  0  0  0  0  0  0  0  0
  1  2  1  0  0  0  0
  2  5  1  0  0  0  0
  2  3  2  0  0  0  0
  4  1  1  0  0  0  0
  5  6  2  0  0  0  0
  6 13  1  0  0  0  0
  7  6  1  0  0  0  0
  7  9  1  0  0  0  0
  8  7  1  0  0  0  0
 10 11  1  0  0  0  0
 10  8  2  0  0  0  0
 11  5  1  0  0  0  0
 12 11  1  0  0  0  0
 13 15  1  0  0  0  0
 13 14  1  0  0  0  0
 16 20  1  6  0  0  0
 16  1  1  0  0  0  0
 17 16  1  0  0  0  0
 17 19  1  0  0  0  0
 18 17  1  0  0  0  0
 20 23  1  0  0  0  0
 21 20  1  0  0  0  0
 22 21  1  0  0  0  0
 23 24  1  0  0  0  0
M  END
>  <REMARK>
  7 active torsions:
  status: ('A' for Active; 'I' for Inactive)
    1  A    between atoms: C_2  and  C_4 
    2  A    between atoms: C_4  and  N_5 
    3  A    between atoms: C_4  and  C_17 
       I    between atoms: N_5  and  C_6 
    4  A    between atoms: C_6  and  C_8 
    5  A    between atoms: C_15  and  N_16 
    6  A    between atoms: C_17  and  O_18 
    7  A    between atoms: C_17  and  O_19 

>  <TORSDO>
F 7

$$$$
C:\Users\siddh\.mgltools\PyRx\Ligands\ZINC000236712625_uff_E=158.00.pdbqt
 OpenBabel04182118313D

 21 21  0  0  1  0  0  0  0  0999 V2000
    2.1170   -0.1560   -1.1890 N   0  0  0  0  0  0  0  0  0  0  0  0
    3.0350   -0.8110   -1.9580 C   0  0  0  0  0  0  0  0  0  0  0  0
    2.6770   -1.7130   -2.7030 O   0  0  0  0  0  0  0  0  0  0  0  0
    2.4460    0.5600   -0.5300 H   0  0  0  0  0  0  0  0  0  0  0  0
    0.6960   -0.4840   -1.2320 C   0  0  1  0  0  3  0  0  0  0  0  0
   -0.0610    0.0950    0.0010 C   0  0  0  0  0  3  0  0  0  0  0  0
   -0.0960    1.6320    0.0750 C   0  0  0  0  0  1  0  0  0  0  0  0
   -1.4940   -0.4600    0.0590 C   0  0  0  0  0  1  0  0  0  0  0  0
    0.1060   -0.0400   -2.5520 C   0  0  0  0  0  3  0  0  0  0  0  0
    0.2120    1.2430   -2.9500 O   0  0  0  0  0  0  0  0  0  0  0  0
   -0.1560    1.5120   -3.7690 H   0  0  0  0  0  0  0  0  0  0  0  0
   -0.5140   -0.9310   -3.3480 O   0  0  0  0  0  0  0  0  0  0  0  0
   -0.5920   -1.8250   -3.0780 H   0  0  0  0  0  0  0  0  0  0  0  0
    4.5080   -0.4290   -1.8820 C   0  0  1  0  0  3  0  0  0  0  0  0
    5.0330   -0.5000   -0.4320 C   0  0  0  0  0  2  0  0  0  0  0  0
    6.5340   -0.3480   -0.3460 C   0  0  0  0  0  0  0  0  0  0  0  0
    7.3290   -0.4340   -1.4500 N   0  0  0  0  0  0  0  0  0  0  0  0
    7.0440   -0.1440    0.7460 O   0  0  0  0  0  0  0  0  0  0  0  0
    6.8240   -0.7650   -2.7730 C   0  0  0  0  0  2  0  0  0  0  0  0
    8.3380   -0.2470   -1.3520 H   0  0  0  0  0  0  0  0  0  0  0  0
    5.3940   -1.3230   -2.7510 C   0  0  0  0  0  2  0  0  0  0  0  0
  1  4  1  0  0  0  0
  2  1  1  0  0  0  0
  3  2  2  0  0  0  0
  5  9  1  6  0  0  0
  5  1  1  0  0  0  0
  5  6  1  0  0  0  0
  6  8  1  0  0  0  0
  6  7  1  0  0  0  0
 10  9  1  0  0  0  0
 11 10  1  0  0  0  0
 12 13  1  0  0  0  0
 12  9  1  0  0  0  0
 14  2  1  1  0  0  0
 14 15  1  0  0  0  0
 15 16  1  0  0  0  0
 16 18  2  0  0  0  0
 17 20  1  0  0  0  0
 17 16  1  0  0  0  0
 19 21  1  0  0  0  0
 19 17  1  0  0  0  0
 21 14  1  0  0  0  0
M  END
>  <REMARK>
  6 active torsions:
  status: ('A' for Active; 'I' for Inactive)
    1  A    between atoms: C_2  and  C_4 
    2  A    between atoms: C_4  and  N_5 
    3  A    between atoms: C_4  and  C_15 
       I    between atoms: N_5  and  C_6 
    4  A    between atoms: C_6  and  C_8 
    5  A    between atoms: C_15  and  O_16 
    6  A    between atoms: C_15  and  O_17 

>  <TORSDO>
F 6

$$$$
C:\Users\siddh\.mgltools\PyRx\Ligands\ZINC000236644466_uff_E=172.16.pdbqt
 OpenBabel04182118313D

 21 21  0  0  1  0  0  0  0  0999 V2000
    2.0730   -0.0120   -1.2810 N   0  0  0  0  0  0  0  0  0  0  0  0
    2.7360    0.1310   -2.4630 C   0  0  0  0  0  0  0  0  0  0  0  0
    2.1880   -0.1770   -3.5130 O   0  0  0  0  0  0  0  0  0  0  0  0
    2.5390    0.2570   -0.4020 H   0  0  0  0  0  0  0  0  0  0  0  0
    0.7150   -0.5380   -1.2390 C   0  0  2  0  0  3  0  0  0  0  0  0
   -0.0340   -0.0090    0.0170 C   0  0  0  0  0  3  0  0  0  0  0  0
   -0.0400    1.5330    0.0290 C   0  0  0  0  0  1  0  0  0  0  0  0
   -1.4900   -0.4990    0.0740 C   0  0  0  0  0  1  0  0  0  0  0  0
    0.7730   -2.0520   -1.3180 C   0  0  0  0  0  3  0  0  0  0  0  0
   -0.3460   -2.7690   -1.5320 O   0  0  0  0  0  0  0  0  0  0  0  0
   -0.3010   -3.7030   -1.5790 H   0  0  0  0  0  0  0  0  0  0  0  0
    1.9550   -2.6940   -1.2200 O   0  0  0  0  0  0  0  0  0  0  0  0
    2.7420   -2.2080   -1.0710 H   0  0  0  0  0  0  0  0  0  0  0  0
    4.1510    0.6720   -2.4850 C   0  0  2  0  0  3  0  0  0  0  0  0
    4.2120    2.0820   -1.8640 C   0  0  0  0  0  2  0  0  0  0  0  0
    5.5400    2.7640   -2.1020 C   0  0  0  0  0  0  0  0  0  0  0  0
    6.4450    2.2800   -3.0010 N   0  0  0  0  0  0  0  0  0  0  0  0
    5.8020    3.7790   -1.4750 O   0  0  0  0  0  0  0  0  0  0  0  0
    6.1870    1.1310   -3.8540 C   0  0  0  0  0  2  0  0  0  0  0  0
    7.3650    2.7390   -3.0780 H   0  0  0  0  0  0  0  0  0  0  0  0
    4.7070    0.7470   -3.9050 C   0  0  0  0  0  2  0  0  0  0  0  0
  1  5  1  0  0  0  0
  1  4  1  0  0  0  0
  2  1  1  0  0  0  0
  3  2  2  0  0  0  0
  5  9  1  1  0  0  0
  5  6  1  0  0  0  0
  6  7  1  0  0  0  0
  6  8  1  0  0  0  0
  9 12  1  0  0  0  0
 10  9  1  0  0  0  0
 11 10  1  0  0  0  0
 12 13  1  0  0  0  0
 14  2  1  6  0  0  0
 14 15  1  0  0  0  0
 16 15  1  0  0  0  0
 16 18  2  0  0  0  0
 17 16  1  0  0  0  0
 19 17  1  0  0  0  0
 20 17  1  0  0  0  0
 21 19  1  0  0  0  0
 21 14  1  0  0  0  0
M  END
>  <REMARK>
  6 active torsions:
  status: ('A' for Active; 'I' for Inactive)
    1  A    between atoms: C_2  and  C_4 
    2  A    between atoms: C_4  and  N_5 
    3  A    between atoms: C_4  and  C_15 
       I    between atoms: N_5  and  C_6 
    4  A    between atoms: C_6  and  C_8 
    5  A    between atoms: C_15  and  O_16 
    6  A    between atoms: C_15  and  O_17 

>  <TORSDO>
F 6

$$$$
C:\Users\siddh\.mgltools\PyRx\Ligands\ZINC000236129504_uff_E=511.42.pdbqt
 OpenBabel04182118313D

 20 21  0  0  1  0  0  0  0  0999 V2000
    1.3870   -3.8630    1.5250 N   0  0  0  0  0  0  0  0  0  0  0  0
    2.3140   -4.2380    0.4420 C   0  0  0  0  0  2  0  0  0  0  0  0
    3.3420   -5.1400    1.0920 C   0  0  0  0  0  2  0  0  0  0  0  0
    2.4260   -5.9970    1.9330 C   0  0  0  0  0  2  0  0  0  0  0  0
    1.4660   -4.9510    2.5470 C   0  0  1  0  0  0  0  0  0  0  0  0
    2.0830   -4.3590    3.8330 C   0  0  0  0  0  1  0  0  0  0  0  0
    0.0440   -3.4030    1.0910 C   0  0  0  0  0  2  0  0  0  0  0  0
    0.1240   -2.3840   -0.0110 C   0  0  2  0  0  3  0  0  0  0  0  0
    0.5260   -2.6460   -1.2720 N   0  0  0  0  0  0  0  0  0  0  0  0
    0.5180   -1.4840   -1.9000 N   0  0  0  0  0  2  0  0  0  0  0  0
    0.7820   -3.5540   -1.6610 H   0  0  0  0  0  0  0  0  0  0  0  0
    0.1210   -0.5470   -1.0540 N   0  0  0  0  0  0  0  0  0  0  0  0
    0.0620    0.8690   -1.3720 C   0  0  0  0  0  1  0  0  0  0  0  0
   -0.1440   -1.0720    0.1280 N   0  0  0  0  0  0  0  0  0  0  0  0
   -0.4780   -0.5900    0.9630 H   0  0  0  0  0  0  0  0  0  0  0  0
    0.1310   -5.5900    2.9330 C   0  0  0  0  0  3  0  0  0  0  0  0
   -0.0950   -6.9010    2.7160 O   0  0  0  0  0  0  0  0  0  0  0  0
   -0.9170   -7.2810    2.9560 H   0  0  0  0  0  0  0  0  0  0  0  0
   -0.8280   -4.8520    3.5270 O   0  0  0  0  0  0  0  0  0  0  0  0
   -0.6870   -3.9400    3.6840 H   0  0  0  0  0  0  0  0  0  0  0  0
  1  5  1  0  0  0  0
  2  3  1  0  0  0  0
  2  1  1  0  0  0  0
  3  4  1  0  0  0  0
  4  5  1  0  0  0  0
  5 16  1  0  0  0  0
  5  6  1  1  0  0  0
  7  1  1  0  0  0  0
  8 14  1  0  0  0  0
  8  7  1  1  0  0  0
  9  8  1  0  0  0  0
 10  9  1  0  0  0  0
 10 12  1  0  0  0  0
 11  9  1  0  0  0  0
 12 14  1  0  0  0  0
 13 12  1  0  0  0  0
 14 15  1  0  0  0  0
 16 19  1  0  0  0  0
 17 16  1  0  0  0  0
 17 18  1  0  0  0  0
 19 20  1  0  0  0  0
M  END
>  <REMARK>
  5 active torsions:
  status: ('A' for Active; 'I' for Inactive)
    1  A    between atoms: C_6  and  C_7 
    2  A    between atoms: C_7  and  N_8 
    3  A    between atoms: C_12  and  C_14 
    4  A    between atoms: C_14  and  O_15 
    5  A    between atoms: C_14  and  O_16 

>  <TORSDO>
F 5

$$$$
C:\Users\siddh\.mgltools\PyRx\Ligands\ZINC000236128931_uff_E=504.51.pdbqt
 OpenBabel04182118313D

 20 21  0  0  1  0  0  0  0  0999 V2000
    1.3810   -3.6040    1.8690 N   0  0  0  0  0  0  0  0  0  0  0  0
    2.0970   -2.5910    2.6580 C   0  0  0  0  0  2  0  0  0  0  0  0
    3.1380   -3.3820    3.4340 C   0  0  0  0  0  2  0  0  0  0  0  0
    2.2940   -4.5490    3.8930 C   0  0  0  0  0  2  0  0  0  0  0  0
    1.4850   -4.8890    2.6240 C   0  0  2  0  0  0  0  0  0  0  0  0
    2.2690   -5.8760    1.7320 C   0  0  0  0  0  1  0  0  0  0  0  0
    0.0400   -3.2190    1.3910 C   0  0  0  0  0  2  0  0  0  0  0  0
    0.0520   -2.0570    0.4460 C   0  0  1  0  0  3  0  0  0  0  0  0
   -0.3220   -2.1320   -0.8480 N   0  0  0  0  0  0  0  0  0  0  0  0
   -0.3130   -0.8870   -1.2940 N   0  0  0  0  0  2  0  0  0  0  0  0
   -0.5620   -2.9730   -1.3720 H   0  0  0  0  0  0  0  0  0  0  0  0
    0.0460   -0.0830   -0.3070 N   0  0  0  0  0  0  0  0  0  0  0  0
    0.0810    1.3680   -0.3980 C   0  0  0  0  0  1  0  0  0  0  0  0
    0.2880   -0.7770    0.7910 N   0  0  0  0  0  0  0  0  0  0  0  0
    0.5870   -0.4220    1.6990 H   0  0  0  0  0  0  0  0  0  0  0  0
    0.1460   -5.5150    3.0310 C   0  0  0  0  0  3  0  0  0  0  0  0
   -0.6850   -4.8570    3.8640 O   0  0  0  0  0  0  0  0  0  0  0  0
   -1.5030   -5.2420    4.1110 H   0  0  0  0  0  0  0  0  0  0  0  0
   -0.2220   -6.7270    2.5660 O   0  0  0  0  0  0  0  0  0  0  0  0
    0.3440   -7.1980    1.9860 H   0  0  0  0  0  0  0  0  0  0  0  0
  1  5  1  0  0  0  0
  1  2  1  0  0  0  0
  2  3  1  0  0  0  0
  3  4  1  0  0  0  0
  5  6  1  6  0  0  0
  5 16  1  0  0  0  0
  5  4  1  0  0  0  0
  7  1  1  0  0  0  0
  8 14  1  0  0  0  0
  8  7  1  1  0  0  0
  9  8  1  0  0  0  0
 10  9  1  0  0  0  0
 10 12  1  0  0  0  0
 11  9  1  0  0  0  0
 12 14  1  0  0  0  0
 13 12  1  0  0  0  0
 14 15  1  0  0  0  0
 16 17  1  0  0  0  0
 17 18  1  0  0  0  0
 19 16  1  0  0  0  0
 20 19  1  0  0  0  0
M  END
>  <REMARK>
  5 active torsions:
  status: ('A' for Active; 'I' for Inactive)
    1  A    between atoms: C_6  and  C_7 
    2  A    between atoms: C_7  and  N_8 
    3  A    between atoms: C_12  and  C_14 
    4  A    between atoms: C_14  and  O_15 
    5  A    between atoms: C_14  and  O_16 

>  <TORSDO>
F 5

$$$$
C:\Users\siddh\.mgltools\PyRx\Ligands\ZINC000231456706_uff_E=163.47.pdbqt
 OpenBabel04182118313D

 17 17  0  0  1  0  0  0  0  0999 V2000
    0.4420   -0.4910   -1.9330 C   0  0  0  0  0  3  0  0  0  0  0  0
    1.8890   -0.0000   -1.6710 C   0  0  0  0  0  2  0  0  0  0  0  0
    2.8250   -0.4890   -2.7850 C   0  0  0  0  0  2  0  0  0  0  0  0
    2.7360   -1.9460   -2.8860 N   0  0  0  0  0  0  0  0  0  0  0  0
    3.8780   -2.7210   -2.7650 C   0  0  0  0  0  0  0  0  0  0  0  0
    4.9640   -2.1680   -2.6870 O   0  0  0  0  0  0  0  0  0  0  0  0
    1.3970   -2.4740   -3.1430 C   0  0  0  0  0  2  0  0  0  0  0  0
    0.4540   -2.0360   -2.0210 C   0  0  0  0  0  2  0  0  0  0  0  0
    3.8980   -4.2180   -2.7190 C   0  0  0  0  0  3  0  0  0  0  0  0
    5.0840   -4.8500   -2.8210 O   0  0  0  0  0  0  0  0  0  0  0  0
    5.1200   -5.7860   -2.7950 H   0  0  0  0  0  0  0  0  0  0  0  0
    2.8040   -4.9570   -2.4720 O   0  0  0  0  0  0  0  0  0  0  0  0
    1.9660   -4.5430   -2.3960 H   0  0  0  0  0  0  0  0  0  0  0  0
   -0.5690   -0.0070   -0.8630 C   0  0  1  0  0  3  0  0  0  0  0  0
   -0.6410    1.5260   -0.8000 C   0  0  0  0  0  1  0  0  0  0  0  0
   -1.8430   -0.5040   -1.1920 O   0  0  0  0  0  0  0  0  0  0  0  0
   -2.4430   -0.3050   -0.4270 H   0  0  0  0  0  0  0  0  0  0  0  0
  1  2  1  0  0  0  0
  1 14  1  0  0  0  0
  3  2  1  0  0  0  0
  4  3  1  0  0  0  0
  4  5  1  0  0  0  0
  5  9  1  0  0  0  0
  5  6  2  0  0  0  0
  7  4  1  0  0  0  0
  7  8  1  0  0  0  0
  8  1  1  0  0  0  0
  9 12  1  0  0  0  0
 10 11  1  0  0  0  0
 10  9  1  0  0  0  0
 12 13  1  0  0  0  0
 14 15  1  6  0  0  0
 16 14  1  0  0  0  0
 16 17  1  0  0  0  0
M  END
>  <REMARK>
  5 active torsions:
  status: ('A' for Active; 'I' for Inactive)
    1  A    between atoms: C_2  and  O_3 
    2  A    between atoms: C_2  and  C_4 
       I    between atoms: N_7  and  C_8 
    3  A    between atoms: C_8  and  C_10 
    4  A    between atoms: C_10  and  O_11 
    5  A    between atoms: C_10  and  O_12 

>  <TORSDO>
F 5

$$$$
C:\Users\siddh\.mgltools\PyRx\Ligands\ZINC000225809565_uff_E=462.80.pdbqt
 OpenBabel04182118313D

 18 18  0  0  1  0  0  0  0  0999 V2000
    0.3080    1.6130   -0.0650 C   0  0  0  0  0  1  0  0  0  0  0  0
    0.1330    0.1190   -0.0080 C   0  0  0  0  0  0  0  0  0  0  0  0
   -0.0230   -0.5930   -1.2050 C   0  0  0  0  0  2  0  0  0  0  0  0
   -0.1500   -1.9430   -1.1860 N   0  0  0  0  0  0  0  0  0  0  0  0
   -0.2470   -2.4530   -2.0640 H   0  0  0  0  0  0  0  0  0  0  0  0
   -0.1500   -2.6230   -0.0150 C   0  0  2  0  0  3  0  0  0  0  0  0
   -0.0140   -1.9630    1.1600 N   0  0  0  0  0  0  0  0  0  0  0  0
   -0.0160   -2.4930    2.0310 H   0  0  0  0  0  0  0  0  0  0  0  0
    0.1250   -0.6100    1.2090 C   0  0  0  0  0  0  0  0  0  0  0  0
    0.2800    0.0120    2.5490 C   0  0  0  0  0  3  0  0  0  0  0  0
    0.5130    1.3300    2.6980 O   0  0  0  0  0  0  0  0  0  0  0  0
    0.6060    1.6950    3.5560 H   0  0  0  0  0  0  0  0  0  0  0  0
    0.1940   -0.7610    3.6490 O   0  0  0  0  0  0  0  0  0  0  0  0
    0.0320   -1.6800    3.5640 H   0  0  0  0  0  0  0  0  0  0  0  0
   -0.1440   -4.4020   -0.0250 S   0  0  0  0  0  0  0  0  0  0  0  0
    1.4370   -5.2830   -0.0650 C   0  0  0  0  0  1  0  0  0  0  0  0
   -0.9690   -4.8990    1.1720 O   0  0  0  0  0  0  0  0  0  0  0  0
   -1.0290   -4.8910   -1.1820 O   0  0  0  0  0  0  0  0  0  0  0  0
  1  2  1  0  0  0  0
  2  9  2  0  0  0  0
  3  4  1  0  0  0  0
  3  2  1  0  0  0  0
  4  6  1  0  0  0  0
  5  4  1  0  0  0  0
  6 15  1  6  0  0  0
  6  7  1  0  0  0  0
  7  9  1  0  0  0  0
  7  8  1  0  0  0  0
  9 10  1  0  0  0  0
 10 11  1  0  0  0  0
 10 13  1  0  0  0  0
 11 12  1  0  0  0  0
 14 13  1  0  0  0  0
 15 17  2  0  0  0  0
 16 15  1  0  0  0  0
 18 15  2  0  0  0  0
M  END
>  <REMARK>
  4 active torsions:
  status: ('A' for Active; 'I' for Inactive)
    1  A    between atoms: C_6  and  S_7 
    2  A    between atoms: C_13  and  C_14 
    3  A    between atoms: C_14  and  O_15 
    4  A    between atoms: C_14  and  O_16 

>  <TORSDO>
F 4

$$$$
C:\Users\siddh\.mgltools\PyRx\Ligands\ZINC000222408077_uff_E=280.64.pdbqt
 OpenBabel04182118313D

 18 19  0  0  1  0  0  0  0  0999 V2000
   -1.3430    1.9490    0.0730 C   0  0  2  0  0  3  0  0  0  0  0  0
   -1.5230    2.6300    1.4120 C   0  0  0  0  0  2  0  0  0  0  0  0
   -2.9390    3.0770    1.2430 C   0  0  0  0  0  2  0  0  0  0  0  0
   -3.5600    1.8670    0.5250 C   0  0  1  0  0  3  0  0  0  0  0  0
   -2.4950    1.1510   -0.1000 O   0  0  0  0  0  0  0  0  0  0  0  0
   -4.3540    0.9700    1.4670 C   0  0  0  0  0  0  0  0  0  0  0  0
   -3.9610   -0.1720    1.6520 O   0  0  0  0  0  0  0  0  0  0  0  0
   -5.5180    1.4060    2.0740 N   0  0  0  0  0  0  0  0  0  0  0  0
   -6.3130    0.5250    2.9220 C   0  0  0  0  0  2  0  0  0  0  0  0
   -6.0820    2.7350    1.8640 C   0  0  0  0  0  2  0  0  0  0  0  0
   -7.7360    0.4780    2.3420 C   0  0  0  0  0  2  0  0  0  0  0  0
   -8.2810    1.7850    2.2430 O   0  0  0  0  0  0  0  0  0  0  0  0
   -7.5120    2.5650    1.3410 C   0  0  0  0  0  2  0  0  0  0  0  0
   -0.0710    1.1540    0.0180 C   0  0  0  0  0  3  0  0  0  0  0  0
   -0.1020   -0.1790   -0.1660 O   0  0  0  0  0  0  0  0  0  0  0  0
   -0.1590   -1.0510   -0.5040 H   0  0  0  0  0  0  0  0  0  0  0  0
    1.1150    1.7850    0.1280 O   0  0  0  0  0  0  0  0  0  0  0  0
    1.1420    2.7130    0.2560 H   0  0  0  0  0  0  0  0  0  0  0  0
  1 14  1  1  0  0  0
  1  2  1  0  0  0  0
  3  2  1  0  0  0  0
  4  3  1  0  0  0  0
  4  6  1  1  0  0  0
  5  1  1  0  0  0  0
  5  4  1  0  0  0  0
  6  7  2  0  0  0  0
  6  8  1  0  0  0  0
  8  9  1  0  0  0  0
 10  8  1  0  0  0  0
 11  9  1  0  0  0  0
 12 11  1  0  0  0  0
 13 10  1  0  0  0  0
 13 12  1  0  0  0  0
 14 17  1  0  0  0  0
 15 14  1  0  0  0  0
 16 15  1  0  0  0  0
 17 18  1  0  0  0  0
M  END
>  <REMARK>
  4 active torsions:
  status: ('A' for Active; 'I' for Inactive)
    1  A    between atoms: O_1  and  C_2 
    2  A    between atoms: C_2  and  O_3 
    3  A    between atoms: C_2  and  C_4 
    4  A    between atoms: C_7  and  C_8 
       I    between atoms: C_8  and  N_10 

>  <TORSDO>
F 4

$$$$
C:\Users\siddh\.mgltools\PyRx\Ligands\ZINC000217474649_uff_E=376.79.pdbqt
 OpenBabel04182118313D

 19 20  0  0  1  0  0  0  0  0999 V2000
   -2.3770    0.9330    0.0450 N   0  0  0  0  0  0  0  0  0  0  0  0
   -2.4000    0.0470    1.2280 C   0  0  0  0  0  2  0  0  0  0  0  0
   -3.7550   -0.6780    1.3260 C   0  0  0  0  0  2  0  0  0  0  0  0
   -4.1040   -1.2330    0.0210 N   0  0  0  0  0  0  0  0  0  0  0  0
   -5.0100   -2.1720   -0.2060 N   0  0  0  0  0  0  0  0  0  0  0  0
   -5.6000   -2.6250    0.4920 H   0  0  0  0  0  0  0  0  0  0  0  0
   -5.0080   -2.4210   -1.5360 C   0  0  2  0  0  3  0  0  0  0  0  0
   -4.0780   -1.6040   -2.1580 C   0  0  0  0  0  3  0  0  0  0  0  0
   -3.5400   -0.8620   -1.1380 C   0  0  0  0  0  0  0  0  0  0  0  0
   -2.5070    0.2110   -1.2420 C   0  0  0  0  0  2  0  0  0  0  0  0
   -1.2640    1.9080    0.0390 C   0  0  0  0  0  3  0  0  0  0  0  0
    0.1280    1.3110   -0.0060 C   0  0  0  0  0  0  0  0  0  0  0  0
    0.3340   -0.0190   -0.0460 O   0  0  0  0  0  0  0  0  0  0  0  0
    0.7080   -0.8750   -0.1180 H   0  0  0  0  0  0  0  0  0  0  0  0
    1.1920    2.1360   -0.0090 O   0  0  0  0  0  0  0  0  0  0  0  0
    1.0650    3.0640    0.0180 H   0  0  0  0  0  0  0  0  0  0  0  0
   -5.8880   -3.4280   -2.2090 C   0  0  0  0  0  2  0  0  0  0  0  0
   -5.6530   -3.4210   -3.5910 O   0  0  0  0  0  0  0  0  0  0  0  0
   -6.2740   -4.0850   -3.9860 H   0  0  0  0  0  0  0  0  0  0  0  0
  1  2  1  0  0  0  0
  2  3  1  0  0  0  0
  4  3  1  0  0  0  0
  5  4  1  0  0  0  0
  5  6  1  0  0  0  0
  7 17  1  6  0  0  0
  7  5  1  0  0  0  0
  8  7  1  0  0  0  0
  8  9  2  0  0  0  0
  9  4  1  0  0  0  0
 10  9  1  0  0  0  0
 10  1  1  0  0  0  0
 11  1  1  0  0  0  0
 12 11  2  0  0  0  0
 13 12  1  0  0  0  0
 14 13  1  0  0  0  0
 15 12  1  0  0  0  0
 15 16  1  0  0  0  0
 18 17  1  0  0  0  0
 19 18  1  0  0  0  0
M  END
>  <REMARK>
  6 active torsions:
  status: ('A' for Active; 'I' for Inactive)
    1  A    between atoms: O_1  and  C_2 
    2  A    between atoms: C_2  and  O_3 
    3  A    between atoms: C_2  and  C_4 
    4  A    between atoms: C_4  and  N_5 
    5  A    between atoms: C_11  and  C_12 
    6  A    between atoms: C_12  and  O_13 

>  <TORSDO>
F 6

$$$$
C:\Users\siddh\.mgltools\PyRx\Ligands\ZINC000215566476_uff_E=155.54.pdbqt
 OpenBabel04182118313D

 21 22  0  0  1  0  0  0  0  0999 V2000
   -0.0310    1.5470   -0.0170 C   0  0  0  0  0  1  0  0  0  0  0  0
   -0.0160    0.0430    0.0200 C   0  0  1  0  0  3  0  0  0  0  0  0
   -0.0420   -0.6260   -1.1610 N   0  0  0  0  0  0  0  0  0  0  0  0
   -0.0870   -0.0930   -2.0290 H   0  0  0  0  0  0  0  0  0  0  0  0
   -0.0120   -1.9790   -1.2230 C   0  0  0  0  0  0  0  0  0  0  0  0
    0.0370   -2.7340   -0.0410 C   0  0  0  0  0  0  0  0  0  0  0  0
    0.0650   -4.1480   -0.1370 C   0  0  0  0  0  0  0  0  0  0  0  0
    0.1030   -4.8340    0.8720 O   0  0  0  0  0  0  0  0  0  0  0  0
    0.0520   -4.7640   -1.4090 C   0  0  0  0  0  0  0  0  0  0  0  0
    0.0100   -3.9480   -2.5500 C   0  0  0  0  0  2  0  0  0  0  0  0
   -0.0220   -2.5950   -2.4360 N   0  0  0  0  0  0  0  0  0  0  0  0
    0.0580   -2.0390    1.1910 C   0  0  0  0  0  0  0  0  0  0  0  0
    0.0990   -2.6600    2.2410 O   0  0  0  0  0  0  0  0  0  0  0  0
    0.0360   -0.6510    1.2060 N   0  0  0  0  0  0  0  0  0  0  0  0
    0.0600    0.0820    2.4870 C   0  0  0  0  0  1  0  0  0  0  0  0
   -0.0540   -2.0170   -3.3060 H   0  0  0  0  0  0  0  0  0  0  0  0
    0.0830   -6.2460   -1.5700 C   0  0  0  0  0  0  0  0  0  0  0  0
    0.0790   -6.7940   -2.8010 O   0  0  0  0  0  0  0  0  0  0  0  0
    0.0980   -7.7260   -2.8990 H   0  0  0  0  0  0  0  0  0  0  0  0
    0.1140   -7.0580   -0.4950 O   0  0  0  0  0  0  0  0  0  0  0  0
    0.1170   -6.6940    0.3680 H   0  0  0  0  0  0  0  0  0  0  0  0
  2  1  1  6  0  0  0
  2 14  1  0  0  0  0
  3  2  1  0  0  0  0
  4  3  1  0  0  0  0
  5  3  1  0  0  0  0
  5  6  2  0  0  0  0
  6 12  1  0  0  0  0
  7  6  1  0  0  0  0
  7  8  2  0  0  0  0
  9  7  1  0  0  0  0
 10 11  1  0  0  0  0
 10  9  1  0  0  0  0
 11  5  1  0  0  0  0
 12 14  1  0  0  0  0
 12 13  2  0  0  0  0
 14 15  1  0  0  0  0
 16 11  1  0  0  0  0
 17  9  2  0  0  0  0
 17 20  1  0  0  0  0
 18 17  1  0  0  0  0
 19 18  1  0  0  0  0
 20 21  1  0  0  0  0
M  END
>  <REMARK>
  3 active torsions:
  status: ('A' for Active; 'I' for Inactive)
    1  A    between atoms: C_9  and  C_10 
    2  A    between atoms: C_10  and  O_11 
    3  A    between atoms: C_10  and  O_12 

>  <TORSDO>
F 3

$$$$
C:\Users\siddh\.mgltools\PyRx\Ligands\ZINC000215281161_uff_E=386.79.pdbqt
 OpenBabel04182118313D

 24 25  0  0  1  0  0  0  0  0999 V2000
    0.6410   -0.5320   -1.2010 N   0  0  0  0  0  0  0  0  0  0  0  0
   -0.0540   -0.6010   -2.3750 C   0  0  0  0  0  0  0  0  0  0  0  0
   -1.2190   -0.2350   -2.4050 O   0  0  0  0  0  0  0  0  0  0  0  0
    1.6120   -0.8740   -1.1790 H   0  0  0  0  0  0  0  0  0  0  0  0
    0.0390   -0.0290    0.0310 C   0  0  2  0  0  3  0  0  0  0  0  0
   -0.0140    1.5050    0.0040 C   0  0  0  0  0  1  0  0  0  0  0  0
    0.7950   -0.5140    1.2480 C   0  0  1  0  0  3  0  0  0  0  0  0
    0.4480   -0.2260    2.5190 N   0  0  0  0  0  0  0  0  0  0  0  0
    1.2980   -0.8400    3.3270 N   0  0  0  0  0  0  0  0  0  0  0  0
   -0.3500    0.3650    2.8400 H   0  0  0  0  0  0  0  0  0  0  0  0
    2.1600   -1.5030    2.5220 C   0  0  0  0  0  0  0  0  0  0  0  0
    1.3020   -0.8180    4.3110 H   0  0  0  0  0  0  0  0  0  0  0  0
    1.8770   -1.3230    1.2090 N   0  0  0  0  0  0  0  0  0  0  0  0
    3.0790   -2.1920    2.9300 O   0  0  0  0  0  0  0  0  0  0  0  0
    2.3600   -1.7030    0.3950 H   0  0  0  0  0  0  0  0  0  0  0  0
    0.6180   -1.1150   -3.6160 C   0  0  1  0  0  3  0  0  0  0  0  0
   -0.0520   -1.3290   -4.8600 C   0  0  0  0  0  0  0  0  0  0  0  0
    0.6980   -1.7370   -5.9680 C   0  0  0  0  0  3  0  0  0  0  0  0
    2.0660   -1.9640   -5.8520 C   0  0  0  0  0  3  0  0  0  0  0  0
    2.6840   -1.7820   -4.6200 C   0  0  0  0  0  3  0  0  0  0  0  0
    1.9590   -1.3620   -3.5510 N   0  0  0  0  0  0  0  0  0  0  0  0
    2.4390   -1.2250   -2.6610 H   0  0  0  0  0  0  0  0  0  0  0  0
   -1.3850   -1.1780   -5.0320 O   0  0  0  0  0  0  0  0  0  0  0  0
   -2.0260   -1.0730   -4.3230 H   0  0  0  0  0  0  0  0  0  0  0  0
  1  4  1  0  0  0  0
  1  5  1  0  0  0  0
  2  1  1  0  0  0  0
  3  2  2  0  0  0  0
  5  6  1  6  0  0  0
  7  5  1  1  0  0  0
  7  8  1  0  0  0  0
  8 10  1  0  0  0  0
  8  9  1  0  0  0  0
  9 12  1  0  0  0  0
 11 14  2  0  0  0  0
 11  9  1  0  0  0  0
 13  7  1  0  0  0  0
 13 11  1  0  0  0  0
 15 13  1  0  0  0  0
 16 21  1  0  0  0  0
 16  2  1  6  0  0  0
 17 16  1  0  0  0  0
 18 19  1  0  0  0  0
 18 17  2  0  0  0  0
 19 20  2  0  0  0  0
 20 21  1  0  0  0  0
 21 22  1  0  0  0  0
 23 17  1  0  0  0  0
 23 24  1  0  0  0  0
M  END
>  <REMARK>
  4 active torsions:
  status: ('A' for Active; 'I' for Inactive)
    1  A    between atoms: C_2  and  N_3 
    2  A    between atoms: C_2  and  C_14 
       I    between atoms: N_3  and  C_4 
    3  A    between atoms: C_4  and  C_6 
    4  A    between atoms: C_12  and  O_13 

>  <TORSDO>
F 4

$$$$
C:\Users\siddh\.mgltools\PyRx\Ligands\ZINC000215281114_uff_E=382.72.pdbqt
 OpenBabel04182118313D

 24 25  0  0  1  0  0  0  0  0999 V2000
    0.6780   -0.5030    1.1990 N   0  0  0  0  0  0  0  0  0  0  0  0
    0.0220   -0.5200    2.3980 C   0  0  0  0  0  0  0  0  0  0  0  0
   -1.1380   -0.1440    2.4490 O   0  0  0  0  0  0  0  0  0  0  0  0
    1.6390   -0.8720    1.1520 H   0  0  0  0  0  0  0  0  0  0  0  0
    0.0460   -0.0140   -0.0230 C   0  0  1  0  0  3  0  0  0  0  0  0
   -0.0190    1.5190    0.0030 C   0  0  0  0  0  1  0  0  0  0  0  0
    0.7780   -0.4930   -1.2580 C   0  0  2  0  0  3  0  0  0  0  0  0
    0.3990   -0.2020   -2.5200 N   0  0  0  0  0  0  0  0  0  0  0  0
    1.2300   -0.8110   -3.3500 N   0  0  0  0  0  0  0  0  0  0  0  0
   -0.4070    0.3880   -2.8200 H   0  0  0  0  0  0  0  0  0  0  0  0
    2.1130   -1.4750   -2.5690 C   0  0  0  0  0  0  0  0  0  0  0  0
    1.2110   -0.7860   -4.3340 H   0  0  0  0  0  0  0  0  0  0  0  0
    1.8620   -1.3000   -1.2480 N   0  0  0  0  0  0  0  0  0  0  0  0
    3.0230   -2.1610   -3.0020 O   0  0  0  0  0  0  0  0  0  0  0  0
    2.3660   -1.6810   -0.4470 H   0  0  0  0  0  0  0  0  0  0  0  0
    0.7150   -1.0390    3.6260 C   0  0  1  0  0  3  0  0  0  0  0  0
    0.0940   -1.1710    4.9080 C   0  0  0  0  0  0  0  0  0  0  0  0
    0.8370   -1.7110    5.9640 C   0  0  0  0  0  3  0  0  0  0  0  0
    2.1630   -2.0870    5.7770 C   0  0  0  0  0  3  0  0  0  0  0  0
    2.7470   -1.9240    4.5270 C   0  0  0  0  0  3  0  0  0  0  0  0
    2.0200   -1.4220    3.4970 N   0  0  0  0  0  0  0  0  0  0  0  0
    2.4680   -1.3250    2.5860 H   0  0  0  0  0  0  0  0  0  0  0  0
   -1.1800   -0.8000    5.1760 O   0  0  0  0  0  0  0  0  0  0  0  0
   -1.7650   -0.3250    4.5800 H   0  0  0  0  0  0  0  0  0  0  0  0
  1  2  1  0  0  0  0
  2  3  2  0  0  0  0
  4  1  1  0  0  0  0
  5  6  1  1  0  0  0
  5  1  1  0  0  0  0
  7 13  1  0  0  0  0
  7  5  1  6  0  0  0
  8  7  1  0  0  0  0
  9 11  1  0  0  0  0
  9  8  1  0  0  0  0
 10  8  1  0  0  0  0
 11 13  1  0  0  0  0
 12  9  1  0  0  0  0
 13 15  1  0  0  0  0
 14 11  2  0  0  0  0
 16  2  1  6  0  0  0
 16 17  1  0  0  0  0
 17 23  1  0  0  0  0
 17 18  2  0  0  0  0
 19 18  1  0  0  0  0
 20 19  2  0  0  0  0
 21 16  1  0  0  0  0
 21 20  1  0  0  0  0
 22 21  1  0  0  0  0
 24 23  1  0  0  0  0
M  END
>  <REMARK>
  4 active torsions:
  status: ('A' for Active; 'I' for Inactive)
    1  A    between atoms: C_2  and  N_3 
    2  A    between atoms: C_2  and  C_14 
       I    between atoms: N_3  and  C_4 
    3  A    between atoms: C_4  and  C_6 
    4  A    between atoms: C_12  and  O_13 

>  <TORSDO>
F 4

$$$$
C:\Users\siddh\.mgltools\PyRx\Ligands\ZINC000210958498_uff_E=118.05.pdbqt
 OpenBabel04182118313D

 19 19  0  0  0  0  0  0  0  0999 V2000
    0.6080   -0.4640    1.2240 C   0  0  0  0  0  3  0  0  0  0  0  0
   -0.0010   -1.3010    2.1140 C   0  0  0  0  0  0  0  0  0  0  0  0
   -1.3300   -1.7830    1.9170 N   0  0  0  0  0  0  0  0  0  0  0  0
   -1.9130   -2.6280    2.8000 C   0  0  0  0  0  0  0  0  0  0  0  0
   -3.0490   -3.0250    2.5870 O   0  0  0  0  0  0  0  0  0  0  0  0
   -1.2080   -3.1030    4.0440 C   0  0  0  0  0  2  0  0  0  0  0  0
    0.1450   -2.5920    4.2340 N   0  0  0  0  0  0  0  0  0  0  0  0
    0.7350   -1.7430    3.3340 C   0  0  0  0  0  0  0  0  0  0  0  0
    1.8710   -1.3310    3.5380 O   0  0  0  0  0  0  0  0  0  0  0  0
   -1.8800   -1.5060    1.0980 H   0  0  0  0  0  0  0  0  0  0  0  0
    0.8610   -3.0090    5.4390 C   0  0  0  0  0  2  0  0  0  0  0  0
    1.9860   -3.9590    5.1330 C   0  0  0  0  0  3  0  0  0  0  0  0
    2.2270   -4.3630    3.8700 O   0  0  0  0  0  0  0  0  0  0  0  0
    2.9320   -4.9560    3.6950 H   0  0  0  0  0  0  0  0  0  0  0  0
    2.7340   -4.4460    6.1400 O   0  0  0  0  0  0  0  0  0  0  0  0
    2.5720   -4.1690    7.0210 H   0  0  0  0  0  0  0  0  0  0  0  0
    0.0090    0.0720   -0.0690 C   0  0  0  0  0  3  0  0  0  0  0  0
   -0.0010    1.6040   -0.0400 C   0  0  0  0  0  1  0  0  0  0  0  0
    0.8340   -0.4350   -1.2550 C   0  0  0  0  0  1  0  0  0  0  0  0
  1  2  2  0  0  0  0
  2  8  1  0  0  0  0
  3  2  1  0  0  0  0
  3  4  1  0  0  0  0
  4  6  1  0  0  0  0
  5  4  2  0  0  0  0
  6  7  1  0  0  0  0
  7 11  1  0  0  0  0
  8  9  2  0  0  0  0
  8  7  1  0  0  0  0
 10  3  1  0  0  0  0
 12 11  1  0  0  0  0
 12 15  1  0  0  0  0
 13 12  1  0  0  0  0
 14 13  1  0  0  0  0
 15 16  1  0  0  0  0
 17 18  1  0  0  0  0
 17  1  1  0  0  0  0
 19 17  1  0  0  0  0
M  END
>  <REMARK>
  5 active torsions:
  status: ('A' for Active; 'I' for Inactive)
    1  A    between atoms: C_2  and  C_4 
    2  A    between atoms: N_10  and  C_11 
    3  A    between atoms: C_11  and  C_12 
    4  A    between atoms: C_12  and  O_13 
    5  A    between atoms: C_12  and  O_14 

>  <TORSDO>
F 5

$$$$
C:\Users\siddh\.mgltools\PyRx\Ligands\ZINC000177997520_uff_E=1308.82.pdbqt
 OpenBabel04182118313D

 20 20  0  0  1  0  0  0  0  0999 V2000
   -3.4440   -5.1500   -0.0410 N   0  0  0  0  0  0  0  0  0  0  0  0
   -3.4130   -6.5090    0.0140 C   0  0  0  0  0  0  0  0  0  0  0  0
   -2.3460   -7.0920    0.1510 O   0  0  0  0  0  0  0  0  0  0  0  0
   -4.3540   -4.6690   -0.1170 H   0  0  0  0  0  0  0  0  0  0  0  0
   -2.2190   -4.3680    0.0100 C   0  0  0  0  0  2  0  0  0  0  0  0
   -2.5150   -2.8640    0.0050 C   0  0  0  0  0  2  0  0  0  0  0  0
   -1.2830   -2.0920    0.0070 N   0  0  0  0  0  0  0  0  0  0  0  0
   -1.3000   -0.7310    0.0110 C   0  0  0  0  0  0  0  0  0  0  0  0
   -2.3640   -0.1280    0.0190 O   0  0  0  0  0  0  0  0  0  0  0  0
   -0.3750   -2.5830    0.0020 H   0  0  0  0  0  0  0  0  0  0  0  0
   -0.0200    0.0220    0.0040 C   0  0  0  0  0  3  0  0  0  0  0  0
    0.0160    1.3600    0.0080 C   0  0  0  0  0  2  0  0  0  0  0  0
   -4.7030   -7.3000   -0.0990 C   0  0  1  0  0  3  0  0  0  0  0  0
   -4.6400   -8.8260    0.0940 C   0  0  1  0  0  3  0  0  0  0  0  0
   -5.0310   -7.9160    1.2520 C   0  0  0  0  0  2  0  0  0  0  0  0
   -5.7370   -9.4610   -0.7060 C   0  0  0  0  0  3  0  0  0  0  0  0
   -6.6460  -10.2470   -0.0970 O   0  0  0  0  0  0  0  0  0  0  0  0
   -7.3320  -10.6440   -0.5970 H   0  0  0  0  0  0  0  0  0  0  0  0
   -5.7950   -9.2810   -2.0390 O   0  0  0  0  0  0  0  0  0  0  0  0
   -5.1640   -8.7360   -2.4660 H   0  0  0  0  0  0  0  0  0  0  0  0
  1  5  1  0  0  0  0
  1  2  1  0  0  0  0
  2  3  2  0  0  0  0
  4  1  1  0  0  0  0
  6  7  1  0  0  0  0
  6  5  1  0  0  0  0
  7  8  1  0  0  0  0
  8  9  2  0  0  0  0
 10  7  1  0  0  0  0
 11 12  2  0  0  0  0
 11  8  1  0  0  0  0
 13  2  1  1  0  0  0
 13 14  1  0  0  0  0
 13 15  1  0  0  0  0
 14 16  1  6  0  0  0
 14 15  1  0  0  0  0
 16 17  1  0  0  0  0
 18 17  1  0  0  0  0
 19 16  1  0  0  0  0
 20 19  1  0  0  0  0
M  END
>  <REMARK>
  8 active torsions:
  status: ('A' for Active; 'I' for Inactive)
    1  A    between atoms: C_2  and  C_3 
       I    between atoms: C_3  and  N_5 
    2  A    between atoms: N_5  and  C_6 
    3  A    between atoms: C_6  and  C_7 
    4  A    between atoms: C_7  and  N_8 
       I    between atoms: N_8  and  C_9 
    5  A    between atoms: C_9  and  C_11 
    6  A    between atoms: C_13  and  C_14 
    7  A    between atoms: C_14  and  O_15 
    8  A    between atoms: C_14  and  O_16 

>  <TORSDO>
F 8

$$$$
C:\Users\siddh\.mgltools\PyRx\Ligands\ZINC000177997511_uff_E=1312.71.pdbqt
 OpenBabel04182118313D

 20 20  0  0  1  0  0  0  0  0999 V2000
   -3.4380   -5.1170   -0.0320 N   0  0  0  0  0  0  0  0  0  0  0  0
   -3.4420   -6.4750   -0.0220 C   0  0  0  0  0  0  0  0  0  0  0  0
   -2.3870   -7.0960    0.0090 O   0  0  0  0  0  0  0  0  0  0  0  0
   -4.3410   -4.6170   -0.0370 H   0  0  0  0  0  0  0  0  0  0  0  0
   -2.2010   -4.3580   -0.0190 C   0  0  0  0  0  2  0  0  0  0  0  0
   -2.4930   -2.8540    0.0020 C   0  0  0  0  0  2  0  0  0  0  0  0
   -1.2640   -2.0810    0.0000 N   0  0  0  0  0  0  0  0  0  0  0  0
   -1.2870   -0.7210    0.0110 C   0  0  0  0  0  0  0  0  0  0  0  0
   -2.3530   -0.1220    0.0250 O   0  0  0  0  0  0  0  0  0  0  0  0
   -0.3560   -2.5710   -0.0120 H   0  0  0  0  0  0  0  0  0  0  0  0
   -0.0100    0.0350    0.0030 C   0  0  0  0  0  3  0  0  0  0  0  0
    0.0220    1.3730    0.0090 C   0  0  0  0  0  2  0  0  0  0  0  0
   -4.7710   -7.2000   -0.0260 C   0  0  2  0  0  3  0  0  0  0  0  0
   -4.5930   -8.7220    0.1040 C   0  0  2  0  0  3  0  0  0  0  0  0
   -5.0910   -8.1100   -1.2020 C   0  0  0  0  0  2  0  0  0  0  0  0
   -5.7100   -9.5130    0.7360 C   0  0  0  0  0  3  0  0  0  0  0  0
   -5.5880  -10.8480    0.8610 O   0  0  0  0  0  0  0  0  0  0  0  0
   -6.2770  -11.3470    1.2520 H   0  0  0  0  0  0  0  0  0  0  0  0
   -6.8210   -8.9050    1.1990 O   0  0  0  0  0  0  0  0  0  0  0  0
   -6.9160   -7.9760    1.1170 H   0  0  0  0  0  0  0  0  0  0  0  0
  1  2  1  0  0  0  0
  1  5  1  0  0  0  0
  2  3  2  0  0  0  0
  4  1  1  0  0  0  0
  5  6  1  0  0  0  0
  7  6  1  0  0  0  0
  7  8  1  0  0  0  0
  8  9  2  0  0  0  0
 10  7  1  0  0  0  0
 11 12  2  0  0  0  0
 11  8  1  0  0  0  0
 13  2  1  6  0  0  0
 13 14  1  0  0  0  0
 14 16  1  1  0  0  0
 15 13  1  0  0  0  0
 15 14  1  0  0  0  0
 16 17  1  0  0  0  0
 16 19  1  0  0  0  0
 17 18  1  0  0  0  0
 20 19  1  0  0  0  0
M  END
>  <REMARK>
  8 active torsions:
  status: ('A' for Active; 'I' for Inactive)
    1  A    between atoms: C_2  and  C_3 
       I    between atoms: C_3  and  N_5 
    2  A    between atoms: N_5  and  C_6 
    3  A    between atoms: C_6  and  C_7 
    4  A    between atoms: C_7  and  N_8 
       I    between atoms: N_8  and  C_9 
    5  A    between atoms: C_9  and  C_11 
    6  A    between atoms: C_13  and  C_14 
    7  A    between atoms: C_14  and  O_15 
    8  A    between atoms: C_14  and  O_16 

>  <TORSDO>
F 8

$$$$
C:\Users\siddh\.mgltools\PyRx\Ligands\ZINC000177995311_uff_E=1451.37.pdbqt
 OpenBabel04182118313D

 20 21  0  0  1  0  0  0  0  0999 V2000
   -1.1730   -2.1660   -0.0190 C   0  0  2  0  0  3  0  0  0  0  0  0
   -0.5430   -2.6420   -1.3390 C   0  0  0  0  0  2  0  0  0  0  0  0
   -1.2960   -3.9310   -1.6180 C   0  0  0  0  0  2  0  0  0  0  0  0
   -2.7250   -3.5480   -1.2470 C   0  0  0  0  0  2  0  0  0  0  0  0
   -2.5160   -2.7150   -0.0850 N   0  0  0  0  0  0  0  0  0  0  0  0
   -3.4540   -2.5380    0.8970 C   0  0  0  0  0  0  0  0  0  0  0  0
   -3.1650   -1.8970    1.9020 O   0  0  0  0  0  0  0  0  0  0  0  0
   -1.1540   -0.6480    0.0380 C   0  0  0  0  0  0  0  0  0  0  0  0
    0.0280    0.0230    0.0520 N   0  0  0  0  0  0  0  0  0  0  0  0
    0.0690    1.4700    0.0500 C   0  0  0  0  0  1  0  0  0  0  0  0
    0.9150   -0.5020    0.0470 H   0  0  0  0  0  0  0  0  0  0  0  0
   -2.2090   -0.0260    0.0380 O   0  0  0  0  0  0  0  0  0  0  0  0
   -4.8390   -3.1390    0.7580 C   0  0  1  0  0  3  0  0  0  0  0  0
   -5.7020   -2.8880    2.0030 C   0  0  1  0  0  3  0  0  0  0  0  0
   -6.0150   -2.1760    0.6910 C   0  0  0  0  0  2  0  0  0  0  0  0
   -6.7590   -3.9160    2.2860 C   0  0  0  0  0  3  0  0  0  0  0  0
   -8.0570   -3.5610    2.3470 O   0  0  0  0  0  0  0  0  0  0  0  0
   -8.7120   -4.2070    2.5230 H   0  0  0  0  0  0  0  0  0  0  0  0
   -6.4070   -5.1980    2.5000 O   0  0  0  0  0  0  0  0  0  0  0  0
   -5.5050   -5.4490    2.4590 H   0  0  0  0  0  0  0  0  0  0  0  0
  1  8  1  6  0  0  0
  2  1  1  0  0  0  0
  3  2  1  0  0  0  0
  3  4  1  0  0  0  0
  4  5  1  0  0  0  0
  5  1  1  0  0  0  0
  5  6  1  0  0  0  0
  6  7  2  0  0  0  0
  8 12  2  0  0  0  0
  8  9  1  0  0  0  0
 10  9  1  0  0  0  0
 11  9  1  0  0  0  0
 13  6  1  1  0  0  0
 13 14  1  0  0  0  0
 14 16  1  6  0  0  0
 15 13  1  0  0  0  0
 15 14  1  0  0  0  0
 16 17  1  0  0  0  0
 16 19  1  0  0  0  0
 17 18  1  0  0  0  0
 20 19  1  0  0  0  0
M  END
>  <REMARK>
  5 active torsions:
  status: ('A' for Active; 'I' for Inactive)
       I    between atoms: N_2  and  C_3 
    1  A    between atoms: C_3  and  C_5 
       I    between atoms: N_9  and  C_10 
    2  A    between atoms: C_10  and  C_12 
    3  A    between atoms: C_14  and  C_15 
    4  A    between atoms: C_15  and  O_16 
    5  A    between atoms: C_15  and  O_17 

>  <TORSDO>
F 5

$$$$
C:\Users\siddh\.mgltools\PyRx\Ligands\ZINC000170637953_uff_E=375.04.pdbqt
 OpenBabel04182118313D

 20 21  0  0  1  0  0  0  0  0999 V2000
    0.6390   -2.1970    1.0180 C   0  0  2  0  0  3  0  0  0  0  0  0
    0.0890   -2.9800    0.0550 N   0  0  0  0  0  0  0  0  0  0  0  0
   -0.4070   -2.6720   -0.7820 H   0  0  0  0  0  0  0  0  0  0  0  0
    0.3300   -4.2250    0.4290 N   0  0  0  0  0  0  0  0  0  0  0  0
    1.0000   -4.1990    1.5770 C   0  0  2  0  0  3  0  0  0  0  0  0
    1.3860   -5.3360    2.2080 N   0  0  0  0  0  0  0  0  0  0  0  0
    1.8970   -5.2880    3.0890 H   0  0  0  0  0  0  0  0  0  0  0  0
    1.0810   -6.5490    1.6480 C   0  0  0  0  0  0  0  0  0  0  0  0
    1.5070   -7.8070    2.3510 C   0  0  0  0  0  1  0  0  0  0  0  0
    0.3670   -6.6080    0.4130 C   0  0  0  0  0  0  0  0  0  0  0  0
    0.0080   -7.9310   -0.2210 C   0  0  0  0  0  1  0  0  0  0  0  0
   -0.0140   -5.3880   -0.1960 C   0  0  0  0  0  0  0  0  0  0  0  0
   -0.6340   -5.3690   -1.2460 O   0  0  0  0  0  0  0  0  0  0  0  0
    1.2230   -2.9420    1.9960 N   0  0  0  0  0  0  0  0  0  0  0  0
    1.6920   -2.6360    2.8070 H   0  0  0  0  0  0  0  0  0  0  0  0
    0.6160   -0.7140    1.0210 C   0  0  0  0  0  0  0  0  0  0  0  0
    0.0120   -0.0170    0.0170 N   0  0  0  0  0  0  0  0  0  0  0  0
   -0.0160    1.4340    0.0120 C   0  0  0  0  0  1  0  0  0  0  0  0
   -0.4390   -0.5210   -0.7610 H   0  0  0  0  0  0  0  0  0  0  0  0
    1.1500   -0.1170    1.9460 O   0  0  0  0  0  0  0  0  0  0  0  0
  1 16  1  1  0  0  0
  1 14  1  0  0  0  0
  2  4  1  0  0  0  0
  2  1  1  0  0  0  0
  3  2  1  0  0  0  0
  5  4  1  1  0  0  0
  5 14  1  0  0  0  0
  5  6  1  0  0  0  0
  6  7  1  0  0  0  0
  8  6  1  0  0  0  0
  8  9  1  0  0  0  0
 10  8  2  0  0  0  0
 11 10  1  0  0  0  0
 12 10  1  0  0  0  0
 12  4  1  0  0  0  0
 13 12  2  0  0  0  0
 14 15  1  0  0  0  0
 16 20  2  0  0  0  0
 17 16  1  0  0  0  0
 18 17  1  0  0  0  0
 19 17  1  0  0  0  0
M  END
>  <REMARK>
  1 active torsions:
  status: ('A' for Active; 'I' for Inactive)
       I    between atoms: N_2  and  C_3 
    1  A    between atoms: C_3  and  C_5 

>  <TORSDO>
F 1

$$$$
C:\Users\siddh\.mgltools\PyRx\Ligands\ZINC000169726327_uff_E=143.32.pdbqt
 OpenBabel04182118313D

 19 20  0  0  1  0  0  0  0  0999 V2000
    0.1230   -0.1280   -0.1660 O   0  0  0  0  0  0  0  0  0  0  0  0
    0.0560    1.2150   -0.0760 C   0  0  0  0  0  3  0  0  0  0  0  0
    0.2470   -1.0410   -0.3360 H   0  0  0  0  0  0  0  0  0  0  0  0
    1.1920    1.9370   -0.0850 O   0  0  0  0  0  0  0  0  0  0  0  0
    1.1540    2.8720   -0.0230 H   0  0  0  0  0  0  0  0  0  0  0  0
   -1.2630    1.9160    0.0870 C   0  0  0  0  0  2  0  0  0  0  0  0
   -2.4280    0.9640    0.0680 C   0  0  0  0  0  0  0  0  0  0  0  0
   -2.8120    0.3870   -1.1000 N   0  0  0  0  0  0  0  0  0  0  0  0
   -3.8880   -0.4450   -1.1610 C   0  0  1  0  0  3  0  0  0  0  0  0
   -2.2820    0.5820   -1.9500 H   0  0  0  0  0  0  0  0  0  0  0  0
   -4.5840   -0.7610   -0.0190 N   0  0  0  0  0  0  0  0  0  0  0  0
   -4.2960   -0.9670   -2.4170 N   0  0  0  0  0  0  0  0  0  0  0  0
   -4.2160   -0.1900    1.1840 C   0  0  0  0  0  0  0  0  0  0  0  0
   -5.7350   -1.6940   -0.0650 C   0  0  0  0  0  2  0  0  0  0  0  0
   -3.1350    0.6880    1.2380 C   0  0  0  0  0  3  0  0  0  0  0  0
   -4.8220   -0.4530    2.2090 O   0  0  0  0  0  0  0  0  0  0  0  0
   -5.7620   -2.5380   -1.3520 C   0  0  0  0  0  2  0  0  0  0  0  0
   -5.5800   -1.6210   -2.5440 C   0  0  0  0  0  2  0  0  0  0  0  0
   -3.6810   -0.8800   -3.2390 H   0  0  0  0  0  0  0  0  0  0  0  0
  1  2  1  0  0  0  0
  2  6  1  0  0  0  0
  3  1  1  0  0  0  0
  4  2  1  0  0  0  0
  4  5  1  0  0  0  0
  7  6  1  0  0  0  0
  7 15  2  0  0  0  0
  8  7  1  0  0  0  0
  9 12  1  6  0  0  0
  9  8  1  0  0  0  0
  9 11  1  0  0  0  0
 10  8  1  0  0  0  0
 11 13  1  0  0  0  0
 13 15  1  0  0  0  0
 13 16  2  0  0  0  0
 14 11  1  0  0  0  0
 17 14  1  0  0  0  0
 18 12  1  0  0  0  0
 18 17  1  0  0  0  0
 19 12  1  0  0  0  0
M  END
>  <REMARK>
  3 active torsions:
  status: ('A' for Active; 'I' for Inactive)
    1  A    between atoms: C_2  and  O_3 
    2  A    between atoms: C_2  and  C_4 
    3  A    between atoms: C_4  and  C_5 

>  <TORSDO>
F 3

$$$$
C:\Users\siddh\.mgltools\PyRx\Ligands\ZINC000169676389_uff_E=458.66.pdbqt
 OpenBabel04182118313D

 19 20  0  0  0  0  0  0  0  0999 V2000
    0.0210    1.4850   -0.1990 C   0  0  0  0  0  1  0  0  0  0  0  0
    0.0460    0.0290   -0.0820 N   0  0  0  0  0  0  0  0  0  0  0  0
    0.2290   -0.7730   -1.1240 N   0  0  0  0  0  0  0  0  0  0  0  0
    0.3360   -0.4760   -2.0940 H   0  0  0  0  0  0  0  0  0  0  0  0
    0.2490   -2.0500   -0.6800 C   0  0  0  0  0  2  0  0  0  0  0  0
    0.0460   -2.0480    0.6870 C   0  0  0  0  0  0  0  0  0  0  0  0
   -0.0590   -0.7210    1.0360 C   0  0  0  0  0  0  0  0  0  0  0  0
   -0.1160   -0.2500    2.4610 C   0  0  0  0  0  2  0  0  0  0  0  0
   -1.3510   -0.7250    3.2200 C   0  0  0  0  0  2  0  0  0  0  0  0
   -1.7980   -2.1590    2.9130 C   0  0  0  0  0  2  0  0  0  0  0  0
   -0.7130   -3.1360    2.7990 N   0  0  0  0  0  0  0  0  0  0  0  0
    0.0380   -3.1850    1.6420 C   0  0  0  0  0  0  0  0  0  0  0  0
    0.7150   -4.1720    1.3880 O   0  0  0  0  0  0  0  0  0  0  0  0
   -0.6310   -4.2080    3.7850 C   0  0  0  0  0  2  0  0  0  0  0  0
   -1.4800   -5.3930    3.4310 C   0  0  0  0  0  3  0  0  0  0  0  0
   -2.2140   -5.4070    2.3010 O   0  0  0  0  0  0  0  0  0  0  0  0
   -2.7390   -6.1540    2.0940 H   0  0  0  0  0  0  0  0  0  0  0  0
   -1.5180   -6.4510    4.2630 O   0  0  0  0  0  0  0  0  0  0  0  0
   -1.0100   -6.4460    5.0500 H   0  0  0  0  0  0  0  0  0  0  0  0
  1  2  1  0  0  0  0
  2  7  1  0  0  0  0
  3  5  1  0  0  0  0
  3  2  1  0  0  0  0
  4  3  1  0  0  0  0
  5  6  1  0  0  0  0
  6  7  2  0  0  0  0
  6 12  1  0  0  0  0
  7  8  1  0  0  0  0
  8  9  1  0  0  0  0
 10  9  1  0  0  0  0
 11 10  1  0  0  0  0
 11 14  1  0  0  0  0
 12 11  1  0  0  0  0
 13 12  2  0  0  0  0
 15 14  1  0  0  0  0
 15 18  1  0  0  0  0
 16 15  1  0  0  0  0
 17 16  1  0  0  0  0
 18 19  1  0  0  0  0
M  END
>  <REMARK>
  4 active torsions:
  status: ('A' for Active; 'I' for Inactive)
    1  A    between atoms: N_11  and  C_12 
    2  A    between atoms: C_12  and  C_13 
    3  A    between atoms: C_13  and  O_14 
    4  A    between atoms: C_13  and  O_15 

>  <TORSDO>
F 4

$$$$
C:\Users\siddh\.mgltools\PyRx\Ligands\ZINC000154832053_uff_E=2568.21.pdbqt
 OpenBabel04182118313D

 21 22  0  0  0  0  0  0  0  0999 V2000
   -2.2000    1.8020   -1.2120 C   0  0  0  0  0  0  0  0  0  0  0  0
   -2.9720    2.6880   -1.5550 O   0  0  0  0  0  0  0  0  0  0  0  0
   -2.1850    0.6190   -1.8870 N   0  0  0  0  0  0  0  0  0  0  0  0
   -1.5600   -0.1380   -1.5750 H   0  0  0  0  0  0  0  0  0  0  0  0
   -3.0370    0.3990   -3.0420 C   0  0  0  0  0  2  0  0  0  0  0  0
   -2.8630   -1.0200   -3.5920 C   0  0  0  0  0  2  0  0  0  0  0  0
   -3.6660   -1.2110   -4.7870 N   0  0  0  0  0  0  0  0  0  0  0  0
   -3.7030   -2.4040   -5.4370 C   0  0  0  0  0  0  0  0  0  0  0  0
   -3.0630   -3.3570   -5.0100 O   0  0  0  0  0  0  0  0  0  0  0  0
   -4.2260   -0.4260   -5.1540 H   0  0  0  0  0  0  0  0  0  0  0  0
   -4.5560   -2.5360   -6.6820 C   0  0  0  0  0  3  0  0  0  0  0  0
   -4.5770   -3.9660   -7.2190 C   0  0  0  0  0  2  0  0  0  0  0  0
   -3.8500   -2.8770   -7.9890 C   0  0  0  0  0  2  0  0  0  0  0  0
   -1.2640    2.0400   -0.0380 C   0  0  0  0  0  0  0  0  0  0  0  0
   -1.4090    3.3000    0.8150 C   0  0  0  0  0  2  0  0  0  0  0  0
   -2.0410    1.9960    1.2780 C   0  0  0  0  0  2  0  0  0  0  0  0
    0.0190    1.2580    0.0800 C   0  0  0  0  0  3  0  0  0  0  0  0
   -0.0020   -0.0560    0.3750 O   0  0  0  0  0  0  0  0  0  0  0  0
   -0.0370   -0.8380    0.8900 H   0  0  0  0  0  0  0  0  0  0  0  0
    1.1980    1.8790   -0.1120 O   0  0  0  0  0  0  0  0  0  0  0  0
    1.2190    2.7930   -0.3180 H   0  0  0  0  0  0  0  0  0  0  0  0
  1 14  1  0  0  0  0
  2  1  2  0  0  0  0
  3  4  1  0  0  0  0
  3  1  1  0  0  0  0
  5  3  1  0  0  0  0
  6  5  1  0  0  0  0
  7  6  1  0  0  0  0
  8  9  2  0  0  0  0
  8  7  1  0  0  0  0
 10  7  1  0  0  0  0
 11  8  1  0  0  0  0
 12 11  1  0  0  0  0
 13 12  1  0  0  0  0
 13 11  1  0  0  0  0
 14 17  1  0  0  0  0
 14 15  1  0  0  0  0
 14 16  1  0  0  0  0
 15 16  1  0  0  0  0
 17 18  1  0  0  0  0
 18 19  1  0  0  0  0
 20 17  1  0  0  0  0
 21 20  1  0  0  0  0
M  END
>  <REMARK>
  8 active torsions:
  status: ('A' for Active; 'I' for Inactive)
    1  A    between atoms: O_1  and  C_2 
    2  A    between atoms: C_2  and  O_3 
    3  A    between atoms: C_2  and  C_4 
    4  A    between atoms: C_4  and  C_5 
       I    between atoms: C_5  and  N_7 
    5  A    between atoms: N_7  and  C_8 
    6  A    between atoms: C_8  and  C_9 
    7  A    between atoms: C_9  and  N_10 
       I    between atoms: N_10  and  C_11 
    8  A    between atoms: C_11  and  C_13 

>  <TORSDO>
F 8

$$$$
C:\Users\siddh\.mgltools\PyRx\Ligands\ZINC000152495699_uff_E=1760.43.pdbqt
 OpenBabel04182118313D

 19 20  0  0  1  0  0  0  0  0999 V2000
    2.6430    0.4490    4.5410 S   0  0  0  0  0  0  0  0  0  0  0  0
    3.6570    1.3480    3.8150 O   0  0  0  0  0  0  0  0  0  0  0  0
    1.6370    1.4560    5.1170 O   0  0  0  0  0  0  0  0  0  0  0  0
    1.7720   -0.4060    3.2810 N   0  0  0  0  0  0  0  0  0  0  0  0
    1.3180    0.2160    2.1720 C   0  0  0  0  0  0  0  0  0  0  0  0
    1.5120    1.4120    2.0240 O   0  0  0  0  0  0  0  0  0  0  0  0
    1.6080   -1.3710    3.3860 H   0  0  0  0  0  0  0  0  0  0  0  0
    0.5560   -0.5930    1.1450 C   0  0  1  0  0  3  0  0  0  0  0  0
   -0.0230   -0.0050   -0.1520 C   0  0  1  0  0  3  0  0  0  0  0  0
   -0.1150    1.5270   -0.2100 C   0  0  0  0  0  1  0  0  0  0  0  0
    1.3600   -0.6450   -0.1540 C   0  0  0  0  0  2  0  0  0  0  0  0
    3.3900   -0.5990    5.7700 C   0  0  0  0  0  0  0  0  0  0  0  0
    4.6820   -0.9920    5.6310 N   0  0  0  0  0  0  0  0  0  0  0  0
    5.2610   -1.8180    6.5420 C   0  0  0  0  0  3  0  0  0  0  0  0
    5.2250   -0.6620    4.8330 H   0  0  0  0  0  0  0  0  0  0  0  0
    4.5140   -2.2700    7.6320 C   0  0  0  0  0  3  0  0  0  0  0  0
    3.2210   -1.8770    7.7700 N   0  0  0  0  0  0  0  0  0  0  0  0
    2.6420   -1.0500    6.8590 C   0  0  0  0  0  3  0  0  0  0  0  0
    2.6770   -2.2070    8.5670 H   0  0  0  0  0  0  0  0  0  0  0  0
  1  3  2  0  0  0  0
  1 12  1  0  0  0  0
  2  1  2  0  0  0  0
  4  7  1  0  0  0  0
  4  1  1  0  0  0  0
  5  4  1  0  0  0  0
  6  5  2  0  0  0  0
  8  5  1  1  0  0  0
  9 10  1  1  0  0  0
  9  8  1  0  0  0  0
 11  9  1  0  0  0  0
 11  8  1  0  0  0  0
 12 18  2  0  0  0  0
 13 12  1  0  0  0  0
 13 14  1  0  0  0  0
 14 16  2  0  0  0  0
 15 13  1  0  0  0  0
 16 17  1  0  0  0  0
 17 19  1  0  0  0  0
 18 17  1  0  0  0  0
M  END
>  <REMARK>
  3 active torsions:
  status: ('A' for Active; 'I' for Inactive)
    1  A    between atoms: C_4  and  C_5 
       I    between atoms: C_5  and  N_7 
    2  A    between atoms: N_7  and  S_8 
    3  A    between atoms: S_8  and  C_11 

>  <TORSDO>
F 3

$$$$
C:\Users\siddh\.mgltools\PyRx\Ligands\ZINC000152495606_uff_E=1736.11.pdbqt
 OpenBabel04182118313D

 19 20  0  0  1  0  0  0  0  0999 V2000
    2.9130   -4.0320    1.6000 S   0  0  0  0  0  0  0  0  0  0  0  0
    1.8640   -4.9740    0.9870 O   0  0  0  0  0  0  0  0  0  0  0  0
    3.9270   -3.8500    0.4600 O   0  0  0  0  0  0  0  0  0  0  0  0
    2.1220   -2.4750    1.7690 N   0  0  0  0  0  0  0  0  0  0  0  0
    1.3600   -1.9290    0.7960 C   0  0  0  0  0  0  0  0  0  0  0  0
    1.1980   -2.5160   -0.2650 O   0  0  0  0  0  0  0  0  0  0  0  0
    2.2380   -1.9770    2.6100 H   0  0  0  0  0  0  0  0  0  0  0  0
    0.7250   -0.5830    1.0390 C   0  0  1  0  0  3  0  0  0  0  0  0
   -0.1360    0.0350   -0.0640 C   0  0  2  0  0  3  0  0  0  0  0  0
   -0.0610    1.5580    0.0360 C   0  0  0  0  0  1  0  0  0  0  0  0
   -0.7920   -0.7550    1.0620 C   0  0  0  0  0  2  0  0  0  0  0  0
    3.6340   -4.6560    3.1070 C   0  0  0  0  0  0  0  0  0  0  0  0
    2.9220   -5.4930    3.9060 N   0  0  0  0  0  0  0  0  0  0  0  0
    3.4400   -5.9500    5.0760 C   0  0  0  0  0  3  0  0  0  0  0  0
    1.9850   -5.7830    3.6230 H   0  0  0  0  0  0  0  0  0  0  0  0
    4.7210   -5.5500    5.4630 C   0  0  0  0  0  3  0  0  0  0  0  0
    5.4330   -4.7120    4.6650 N   0  0  0  0  0  0  0  0  0  0  0  0
    4.9150   -4.2550    3.4940 C   0  0  0  0  0  3  0  0  0  0  0  0
    6.3690   -4.4220    4.9480 H   0  0  0  0  0  0  0  0  0  0  0  0
  1  4  1  0  0  0  0
  1 12  1  0  0  0  0
  2  1  2  0  0  0  0
  3  1  2  0  0  0  0
  4  7  1  0  0  0  0
  5  4  1  0  0  0  0
  6  5  2  0  0  0  0
  8  5  1  6  0  0  0
  8 11  1  0  0  0  0
  9 10  1  1  0  0  0
  9  8  1  0  0  0  0
  9 11  1  0  0  0  0
 12 18  2  0  0  0  0
 12 13  1  0  0  0  0
 13 14  1  0  0  0  0
 14 16  2  0  0  0  0
 15 13  1  0  0  0  0
 17 19  1  0  0  0  0
 17 16  1  0  0  0  0
 18 17  1  0  0  0  0
M  END
>  <REMARK>
  3 active torsions:
  status: ('A' for Active; 'I' for Inactive)
    1  A    between atoms: C_4  and  C_5 
       I    between atoms: C_5  and  N_7 
    2  A    between atoms: N_7  and  S_8 
    3  A    between atoms: S_8  and  C_11 

>  <TORSDO>
F 3

$$$$
C:\Users\siddh\.mgltools\PyRx\Ligands\ZINC000152495503_uff_E=1736.71.pdbqt
 OpenBabel04182118313D

 19 20  0  0  1  0  0  0  0  0999 V2000
    0.0990   -4.0840    3.2570 S   0  0  0  0  0  0  0  0  0  0  0  0
   -1.3830   -3.9280    3.6330 O   0  0  0  0  0  0  0  0  0  0  0  0
    0.0510   -5.0010    2.0240 O   0  0  0  0  0  0  0  0  0  0  0  0
    0.5910   -2.5050    2.6700 N   0  0  0  0  0  0  0  0  0  0  0  0
    0.0890   -1.9500    1.5460 C   0  0  0  0  0  0  0  0  0  0  0  0
   -0.7520   -2.5450    0.8850 O   0  0  0  0  0  0  0  0  0  0  0  0
    1.2640   -2.0020    3.1830 H   0  0  0  0  0  0  0  0  0  0  0  0
    0.5760   -0.5860    1.1290 C   0  0  2  0  0  3  0  0  0  0  0  0
    0.0110    0.0370   -0.1500 C   0  0  1  0  0  3  0  0  0  0  0  0
    0.0230    1.5590   -0.0130 C   0  0  0  0  0  1  0  0  0  0  0  0
    1.3340   -0.7190   -0.1900 C   0  0  0  0  0  2  0  0  0  0  0  0
    1.1020   -4.7170    4.5880 C   0  0  0  0  0  0  0  0  0  0  0  0
    0.8190   -4.3630    5.8690 N   0  0  0  0  0  0  0  0  0  0  0  0
    1.5880   -4.8000    6.9000 C   0  0  0  0  0  3  0  0  0  0  0  0
    0.0190   -3.7610    6.0600 H   0  0  0  0  0  0  0  0  0  0  0  0
    2.6860   -5.6220    6.6390 C   0  0  0  0  0  3  0  0  0  0  0  0
    2.9700   -5.9770    5.3570 N   0  0  0  0  0  0  0  0  0  0  0  0
    2.2010   -5.5400    4.3260 C   0  0  0  0  0  3  0  0  0  0  0  0
    3.7710   -6.5790    5.1680 H   0  0  0  0  0  0  0  0  0  0  0  0
  1  2  2  0  0  0  0
  1 12  1  0  0  0  0
  3  1  2  0  0  0  0
  4  7  1  0  0  0  0
  4  1  1  0  0  0  0
  5  4  1  0  0  0  0
  6  5  2  0  0  0  0
  8  5  1  6  0  0  0
  9 10  1  1  0  0  0
  9  8  1  0  0  0  0
 11  9  1  0  0  0  0
 11  8  1  0  0  0  0
 12 13  1  0  0  0  0
 13 15  1  0  0  0  0
 13 14  1  0  0  0  0
 16 14  2  0  0  0  0
 17 16  1  0  0  0  0
 18 12  2  0  0  0  0
 18 17  1  0  0  0  0
 19 17  1  0  0  0  0
M  END
>  <REMARK>
  3 active torsions:
  status: ('A' for Active; 'I' for Inactive)
    1  A    between atoms: C_4  and  C_5 
       I    between atoms: C_5  and  N_7 
    2  A    between atoms: N_7  and  S_8 
    3  A    between atoms: S_8  and  C_11 

>  <TORSDO>
F 3

$$$$
C:\Users\siddh\.mgltools\PyRx\Ligands\ZINC000150294391_uff_E=178.61.pdbqt
 OpenBabel04182118313D

 19 19  0  0  1  0  0  0  0  0999 V2000
    1.4180   -2.4800   -2.4520 N   0  0  0  0  0  0  0  0  0  0  0  0
    0.6860   -2.7760   -3.6800 C   0  0  0  0  0  2  0  0  0  0  0  0
    1.5100   -2.3270   -4.8870 C   0  0  0  0  0  2  0  0  0  0  0  0
    2.8290   -2.9650   -4.8600 N   0  0  0  0  0  0  0  0  0  0  0  0
    3.4730   -3.0890   -3.6510 C   0  0  0  0  0  0  0  0  0  0  0  0
    4.6200   -3.5090   -3.5850 O   0  0  0  0  0  0  0  0  0  0  0  0
    2.7670   -2.7060   -2.4100 C   0  0  0  0  0  0  0  0  0  0  0  0
    3.3940   -2.5850   -1.3660 O   0  0  0  0  0  0  0  0  0  0  0  0
    3.4470   -3.4040   -6.1190 C   0  0  2  0  0  3  0  0  0  0  0  0
    3.6960   -4.9190   -6.1050 C   0  0  0  0  0  1  0  0  0  0  0  0
    4.7180   -2.6380   -6.4240 C   0  0  0  0  0  3  0  0  0  0  0  0
    5.1690   -1.6780   -5.5910 O   0  0  0  0  0  0  0  0  0  0  0  0
    5.9570   -1.2140   -5.7940 H   0  0  0  0  0  0  0  0  0  0  0  0
    5.3920   -2.8890   -7.5620 O   0  0  0  0  0  0  0  0  0  0  0  0
    5.0880   -3.5540   -8.1490 H   0  0  0  0  0  0  0  0  0  0  0  0
    0.7010   -2.0150   -1.2740 C   0  0  0  0  0  2  0  0  0  0  0  0
    0.7000   -0.4880   -1.2390 C   0  0  0  0  0  2  0  0  0  0  0  0
   -0.0150    0.0310    0.0100 C   0  0  0  0  0  2  0  0  0  0  0  0
   -0.0320    1.5550    0.0300 C   0  0  0  0  0  1  0  0  0  0  0  0
  1  7  1  0  0  0  0
  1 16  1  0  0  0  0
  2  1  1  0  0  0  0
  3  4  1  0  0  0  0
  3  2  1  0  0  0  0
  4  5  1  0  0  0  0
  5  6  2  0  0  0  0
  5  7  1  0  0  0  0
  7  8  2  0  0  0  0
  9 10  1  1  0  0  0
  9  4  1  0  0  0  0
 11  9  1  0  0  0  0
 11 12  1  0  0  0  0
 13 12  1  0  0  0  0
 14 11  1  0  0  0  0
 15 14  1  0  0  0  0
 16 17  1  0  0  0  0
 17 18  1  0  0  0  0
 18 19  1  0  0  0  0
M  END
>  <REMARK>
  7 active torsions:
  status: ('A' for Active; 'I' for Inactive)
    1  A    between atoms: C_2  and  C_3 
    2  A    between atoms: C_3  and  C_4 
    3  A    between atoms: C_4  and  N_5 
    4  A    between atoms: N_8  and  C_9 
    5  A    between atoms: C_9  and  C_11 
    6  A    between atoms: C_11  and  O_12 
    7  A    between atoms: C_11  and  O_13 

>  <TORSDO>
F 7

$$$$
C:\Users\siddh\.mgltools\PyRx\Ligands\ZINC000143939187_uff_E=145.87.pdbqt
 OpenBabel04182118313D

 19 20  0  0  0  0  0  0  0  0999 V2000
   -0.0330    1.5080   -0.0230 C   0  0  0  0  0  1  0  0  0  0  0  0
   -0.0080    0.0300   -0.0210 N   0  0  0  0  0  0  0  0  0  0  0  0
   -0.0340   -0.6560   -1.2260 C   0  0  0  0  0  0  0  0  0  0  0  0
   -0.0690   -0.0490   -2.2850 O   0  0  0  0  0  0  0  0  0  0  0  0
   -0.0100   -2.0250   -1.2480 N   0  0  0  0  0  0  0  0  0  0  0  0
    0.0270   -2.7520   -0.0910 C   0  0  0  0  0  0  0  0  0  0  0  0
    0.0410   -3.9710   -0.1490 O   0  0  0  0  0  0  0  0  0  0  0  0
    0.0460   -2.0930    1.1450 C   0  0  0  0  0  0  0  0  0  0  0  0
    0.0670   -2.8200    2.3530 C   0  0  0  0  0  3  0  0  0  0  0  0
    0.0750   -2.1560    3.5870 C   0  0  0  0  0  0  0  0  0  0  0  0
    0.0730   -0.7560    3.6110 C   0  0  0  0  0  3  0  0  0  0  0  0
    0.0560   -0.0220    2.4220 C   0  0  0  0  0  3  0  0  0  0  0  0
    0.0350   -0.6770    1.1670 C   0  0  0  0  0  0  0  0  0  0  0  0
   -0.0240   -2.5240   -2.1670 H   0  0  0  0  0  0  0  0  0  0  0  0
    0.0800   -2.9280    4.8540 C   0  0  0  0  0  3  0  0  0  0  0  0
    0.0780   -4.2760    4.8320 O   0  0  0  0  0  0  0  0  0  0  0  0
    0.0810   -4.7580    5.6360 H   0  0  0  0  0  0  0  0  0  0  0  0
    0.0760   -2.2910    6.0420 O   0  0  0  0  0  0  0  0  0  0  0  0
    0.0770   -1.3550    6.0710 H   0  0  0  0  0  0  0  0  0  0  0  0
  1  2  1  0  0  0  0
  2 13  1  0  0  0  0
  3  2  1  0  0  0  0
  4  3  2  0  0  0  0
  5  3  1  0  0  0  0
  5  6  1  0  0  0  0
  6  8  1  0  0  0  0
  7  6  2  0  0  0  0
  8 13  2  0  0  0  0
  8  9  1  0  0  0  0
  9 10  2  0  0  0  0
 10 11  1  0  0  0  0
 10 15  1  0  0  0  0
 12 11  2  0  0  0  0
 13 12  1  0  0  0  0
 14  5  1  0  0  0  0
 15 18  1  0  0  0  0
 16 15  1  0  0  0  0
 16 17  1  0  0  0  0
 18 19  1  0  0  0  0
M  END
>  <REMARK>
  3 active torsions:
  status: ('A' for Active; 'I' for Inactive)
    1  A    between atoms: C_10  and  C_11 
    2  A    between atoms: C_11  and  O_12 
    3  A    between atoms: C_11  and  O_13 

>  <TORSDO>
F 3

$$$$
C:\Users\siddh\.mgltools\PyRx\Ligands\ZINC000137708902_uff_E=176.08.pdbqt
 OpenBabel04182118313D

 20 20  0  0  1  0  0  0  0  0999 V2000
    0.0670   -4.2520   -0.0350 C   0  0  0  0  0  0  0  0  0  0  0  0
   -0.7250   -4.7130   -0.8450 O   0  0  0  0  0  0  0  0  0  0  0  0
    1.0000   -5.0560    0.5590 N   0  0  0  0  0  0  0  0  0  0  0  0
    1.6390   -4.6190    1.2380 H   0  0  0  0  0  0  0  0  0  0  0  0
    0.0060   -2.7760    0.2990 C   0  0  2  0  0  3  0  0  0  0  0  0
   -1.1190   -2.0850   -0.4620 C   0  0  0  0  0  2  0  0  0  0  0  0
   -1.2390   -0.6390    0.0080 C   0  0  0  0  0  2  0  0  0  0  0  0
    0.0310    0.0780    0.0010 N   0  0  0  0  0  0  0  0  0  0  0  0
   -0.0300    1.5310    0.0540 C   0  0  0  0  0  1  0  0  0  0  0  0
    1.2420   -0.5770   -0.0580 C   0  0  0  0  0  0  0  0  0  0  0  0
    1.3320   -2.0880   -0.0630 C   0  0  0  0  0  2  0  0  0  0  0  0
    2.2830    0.0560   -0.1310 O   0  0  0  0  0  0  0  0  0  0  0  0
    1.1250   -6.4930    0.2720 C   0  0  0  0  0  0  0  0  0  0  0  0
   -0.1780   -7.2200    0.6710 C   0  0  0  0  0  1  0  0  0  0  0  0
    1.4410   -6.7070   -1.2260 C   0  0  0  0  0  1  0  0  0  0  0  0
    2.2640   -7.1180    1.0720 C   0  0  0  0  0  3  0  0  0  0  0  0
    3.0220   -6.3840    1.9110 O   0  0  0  0  0  0  0  0  0  0  0  0
    3.7160   -6.7890    2.3920 H   0  0  0  0  0  0  0  0  0  0  0  0
    2.5280   -8.4340    0.9400 O   0  0  0  0  0  0  0  0  0  0  0  0
    2.0110   -8.9590    0.3620 H   0  0  0  0  0  0  0  0  0  0  0  0
  1  3  1  0  0  0  0
  2  1  2  0  0  0  0
  3  4  1  0  0  0  0
  5  1  1  6  0  0  0
  6  7  1  0  0  0  0
  6  5  1  0  0  0  0
  8  7  1  0  0  0  0
  8  9  1  0  0  0  0
 10  8  1  0  0  0  0
 11 10  1  0  0  0  0
 11  5  1  0  0  0  0
 12 10  2  0  0  0  0
 13  3  1  0  0  0  0
 13 14  1  0  0  0  0
 13 16  1  0  0  0  0
 15 13  1  0  0  0  0
 16 17  1  0  0  0  0
 17 18  1  0  0  0  0
 19 16  1  0  0  0  0
 20 19  1  0  0  0  0
M  END
>  <REMARK>
  5 active torsions:
  status: ('A' for Active; 'I' for Inactive)
    1  A    between atoms: C_5  and  C_6 
       I    between atoms: C_6  and  N_8 
    2  A    between atoms: N_8  and  C_9 
    3  A    between atoms: C_9  and  C_12 
    4  A    between atoms: C_12  and  O_13 
    5  A    between atoms: C_12  and  O_14 

>  <TORSDO>
F 5

$$$$
C:\Users\siddh\.mgltools\PyRx\Ligands\ZINC000134827657_uff_E=343.19.pdbqt
 OpenBabel04182118313D

 20 21  0  0  1  0  0  0  0  0999 V2000
    0.0770   -0.1360    0.0100 O   0  0  0  0  0  0  0  0  0  0  0  0
    0.0180    1.2110    0.0180 C   0  0  0  0  0  3  0  0  0  0  0  0
    0.1890   -1.0660   -0.0040 H   0  0  0  0  0  0  0  0  0  0  0  0
    1.1620    1.9210    0.0460 O   0  0  0  0  0  0  0  0  0  0  0  0
    1.1330    2.8580    0.0520 H   0  0  0  0  0  0  0  0  0  0  0  0
   -1.3100    1.9310    0.0020 C   0  0  2  0  0  3  0  0  0  0  0  0
   -2.4960    0.9450   -0.0120 C   0  0  0  0  0  2  0  0  0  0  0  0
   -3.7530    1.6860   -0.1140 N   0  0  0  0  0  0  0  0  0  0  0  0
   -3.8910    2.5980   -1.2490 C   0  0  0  0  0  2  0  0  0  0  0  0
   -4.7510    1.5130    0.8150 C   0  0  0  0  0  0  0  0  0  0  0  0
   -2.7390    3.6050   -1.2250 C   0  0  0  0  0  2  0  0  0  0  0  0
   -1.4020    2.8540   -1.2300 C   0  0  0  0  0  2  0  0  0  0  0  0
   -4.5830    0.7470    1.7560 O   0  0  0  0  0  0  0  0  0  0  0  0
   -6.0790    2.2280    0.6890 C   0  0  0  0  0  2  0  0  0  0  0  0
   -6.9950    1.8590    1.7640 N   0  0  0  0  0  0  0  0  0  0  0  0
   -7.4030    0.6290    2.0210 N   0  0  0  0  0  2  0  0  0  0  0  0
   -8.2240    0.6320    3.0630 N   0  0  0  0  0  0  0  0  0  0  0  0
   -8.3430    1.9120    3.4730 C   0  0  0  0  0  3  0  0  0  0  0  0
   -8.6810   -0.1810    3.4760 H   0  0  0  0  0  0  0  0  0  0  0  0
   -7.5650    2.6900    2.6480 C   0  0  0  0  0  3  0  0  0  0  0  0
  1  2  1  0  0  0  0
  2  4  1  0  0  0  0
  3  1  1  0  0  0  0
  4  5  1  0  0  0  0
  6  2  1  6  0  0  0
  7  6  1  0  0  0  0
  8  7  1  0  0  0  0
  8 10  1  0  0  0  0
  9 11  1  0  0  0  0
  9  8  1  0  0  0  0
 10 13  2  0  0  0  0
 12 11  1  0  0  0  0
 12  6  1  0  0  0  0
 14 10  1  0  0  0  0
 14 15  1  0  0  0  0
 15 16  1  0  0  0  0
 15 20  1  0  0  0  0
 16 17  1  0  0  0  0
 17 18  1  0  0  0  0
 17 19  1  0  0  0  0
 20 18  2  0  0  0  0
M  END
>  <REMARK>
  4 active torsions:
  status: ('A' for Active; 'I' for Inactive)
    1  A    between atoms: C_2  and  O_3 
    2  A    between atoms: C_2  and  C_4 
       I    between atoms: N_8  and  C_9 
    3  A    between atoms: C_9  and  C_11 
    4  A    between atoms: C_11  and  N_12 

>  <TORSDO>
F 4

$$$$
C:\Users\siddh\.mgltools\PyRx\Ligands\ZINC000130199723_uff_E=736.38.pdbqt
 OpenBabel04182118313D

 18 18  0  0  0  0  0  0  0  0999 V2000
    2.1490   -5.1290    3.4950 N   0  0  0  0  0  0  0  0  0  0  0  0
    2.2860   -6.4560    3.6870 C   0  0  0  0  0  0  0  0  0  0  0  0
    1.8290   -7.2540    2.8850 O   0  0  0  0  0  0  0  0  0  0  0  0
    2.5320   -4.5180    4.1660 H   0  0  0  0  0  0  0  0  0  0  0  0
    1.3260   -4.4380    2.1200 S   0  0  0  0  0  0  0  0  0  0  0  0
   -0.0690   -5.0830    2.1240 O   0  0  0  0  0  0  0  0  0  0  0  0
    2.0200   -5.0480    0.8920 O   0  0  0  0  0  0  0  0  0  0  0  0
    1.3400   -2.6370    2.1940 C   0  0  0  0  0  2  0  0  0  0  0  0
    0.6220   -2.0440    0.9940 C   0  0  0  0  0  2  0  0  0  0  0  0
    0.6440   -0.5230    1.0760 C   0  0  0  0  0  2  0  0  0  0  0  0
   -0.0260    0.0010   -0.0460 O   0  0  0  0  0  0  0  0  0  0  0  0
   -0.0080    1.4060    0.0250 C   0  0  0  0  0  1  0  0  0  0  0  0
    2.9970   -6.9200    4.8780 C   0  0  0  0  0  0  0  0  0  0  0  0
    3.5250   -6.1020    5.8040 N   0  0  0  0  0  0  0  0  0  0  0  0
    4.0750   -6.9360    6.7080 C   0  0  0  0  0  2  0  0  0  0  0  0
    3.5130   -5.0820    5.8190 H   0  0  0  0  0  0  0  0  0  0  0  0
    3.9010   -8.1960    6.3690 O   0  0  0  0  0  0  0  0  0  0  0  0
    3.2370   -8.2220    5.2400 C   0  0  0  0  0  3  0  0  0  0  0  0
  1  2  1  0  0  0  0
  1  4  1  0  0  0  0
  2 13  1  0  0  0  0
  3  2  2  0  0  0  0
  5  6  2  0  0  0  0
  5  8  1  0  0  0  0
  5  1  1  0  0  0  0
  7  5  2  0  0  0  0
  9 10  1  0  0  0  0
  9  8  1  0  0  0  0
 11 12  1  0  0  0  0
 11 10  1  0  0  0  0
 13 18  2  0  0  0  0
 13 14  1  0  0  0  0
 14 16  1  0  0  0  0
 14 15  1  0  0  0  0
 17 15  1  0  0  0  0
 18 17  1  0  0  0  0
M  END
>  <REMARK>
  6 active torsions:
  status: ('A' for Active; 'I' for Inactive)
    1  A    between atoms: O_2  and  C_3 
    2  A    between atoms: C_3  and  C_4 
    3  A    between atoms: C_4  and  C_5 
    4  A    between atoms: C_5  and  S_6 
    5  A    between atoms: S_6  and  N_9 
       I    between atoms: N_9  and  C_10 
    6  A    between atoms: C_10  and  C_12 

>  <TORSDO>
F 6

$$$$
C:\Users\siddh\.mgltools\PyRx\Ligands\ZINC000129589501_uff_E=135.19.pdbqt
 OpenBabel04182118313D

 18 18  0  0  0  0  0  0  0  0999 V2000
    1.3420   -4.1540    2.0920 N   0  0  0  0  0  0  0  0  0  0  0  0
    0.3180   -4.8200    2.6320 N   0  0  0  0  0  0  0  0  0  0  0  0
   -0.4160   -4.2960    3.1090 H   0  0  0  0  0  0  0  0  0  0  0  0
    0.2220   -6.1730    2.5650 C   0  0  0  0  0  0  0  0  0  0  0  0
    1.2240   -6.9000    1.9130 C   0  0  0  0  0  3  0  0  0  0  0  0
    2.2950   -6.2220    1.3440 C   0  0  0  0  0  3  0  0  0  0  0  0
    2.3500   -4.8330    1.4340 C   0  0  0  0  0  0  0  0  0  0  0  0
    3.2850   -4.2310    0.9330 O   0  0  0  0  0  0  0  0  0  0  0  0
    1.3590   -2.6950    2.2070 C   0  0  0  0  0  2  0  0  0  0  0  0
    0.6350   -2.0730    1.0130 C   0  0  0  0  0  2  0  0  0  0  0  0
    0.6570   -0.5480    1.0990 C   0  0  0  0  0  2  0  0  0  0  0  0
   -0.0150   -0.0210   -0.0250 O   0  0  0  0  0  0  0  0  0  0  0  0
   -0.0010    1.3880    0.0360 C   0  0  0  0  0  1  0  0  0  0  0  0
   -0.9340   -6.8450    3.1810 C   0  0  0  0  0  0  0  0  0  0  0  0
   -1.8810   -6.1150    3.8000 O   0  0  0  0  0  0  0  0  0  0  0  0
   -2.6180   -6.5400    4.1930 H   0  0  0  0  0  0  0  0  0  0  0  0
   -1.0550   -8.1860    3.1320 O   0  0  0  0  0  0  0  0  0  0  0  0
   -0.4000   -8.7000    2.7030 H   0  0  0  0  0  0  0  0  0  0  0  0
  1  9  1  0  0  0  0
  1  2  1  0  0  0  0
  2  3  1  0  0  0  0
  4  2  1  0  0  0  0
  4 14  2  0  0  0  0
  5  4  1  0  0  0  0
  6  7  1  0  0  0  0
  6  5  2  0  0  0  0
  7  1  1  0  0  0  0
  8  7  2  0  0  0  0
 10 11  1  0  0  0  0
 10  9  1  0  0  0  0
 12 13  1  0  0  0  0
 12 11  1  0  0  0  0
 14 15  1  0  0  0  0
 15 16  1  0  0  0  0
 17 14  1  0  0  0  0
 18 17  1  0  0  0  0
M  END
>  <REMARK>
  7 active torsions:
  status: ('A' for Active; 'I' for Inactive)
    1  A    between atoms: O_2  and  C_3 
    2  A    between atoms: C_3  and  C_4 
    3  A    between atoms: C_4  and  C_5 
    4  A    between atoms: C_5  and  N_6 
    5  A    between atoms: C_9  and  C_10 
    6  A    between atoms: C_10  and  O_11 
    7  A    between atoms: C_10  and  O_12 

>  <TORSDO>
F 7

$$$$
C:\Users\siddh\.mgltools\PyRx\Ligands\ZINC000125979414_uff_E=121.97.pdbqt
 OpenBabel04182118313D

 18 19  0  0  0  0  0  0  0  0999 V2000
    0.0470    0.0050    0.0010 O   0  0  0  0  0  0  0  0  0  0  0  0
    0.0320    1.2250    0.0110 C   0  0  0  0  0  0  0  0  0  0  0  0
   -1.1660    1.8950    0.0330 N   0  0  0  0  0  0  0  0  0  0  0  0
   -1.2030    3.2560    0.0450 C   0  0  0  0  0  0  0  0  0  0  0  0
   -2.4280    3.9320    0.0650 C   0  0  0  0  0  3  0  0  0  0  0  0
   -2.4620    5.3260    0.0670 C   0  0  0  0  0  3  0  0  0  0  0  0
   -1.2790    6.0730    0.0480 C   0  0  0  0  0  0  0  0  0  0  0  0
   -0.0370    5.3980    0.0390 C   0  0  0  0  0  3  0  0  0  0  0  0
    0.0020    3.9910    0.0340 C   0  0  0  0  0  0  0  0  0  0  0  0
    1.1930    3.3250    0.0110 N   0  0  0  0  0  0  0  0  0  0  0  0
    1.2300    1.9510    0.0000 C   0  0  0  0  0  0  0  0  0  0  0  0
    2.3040    1.3710   -0.0200 O   0  0  0  0  0  0  0  0  0  0  0  0
   -2.0570    1.3470    0.0390 H   0  0  0  0  0  0  0  0  0  0  0  0
    2.0920    3.8600    0.0000 H   0  0  0  0  0  0  0  0  0  0  0  0
   -1.4340    7.8800    0.0040 S   0  0  1  0  0  3  0  0  0  0  0  0
   -1.2010    8.0310    1.5140 O   0  0  0  0  0  1  0  0  0  0  0  0
    0.2100    8.2050   -0.3660 O   0  0  0  0  0  0  0  0  0  0  0  0
    0.3390    8.1680   -1.3270 H   0  0  0  0  0  0  0  0  0  0  0  0
  1  2  2  0  0  0  0
  2  3  1  0  0  0  0
  3 13  1  0  0  0  0
  3  4  1  0  0  0  0
  4  5  1  0  0  0  0
  5  6  2  0  0  0  0
  7  6  1  0  0  0  0
  8  7  2  0  0  0  0
  9  8  1  0  0  0  0
  9  4  2  0  0  0  0
 10  9  1  0  0  0  0
 11  2  1  0  0  0  0
 11 10  1  0  0  0  0
 12 11  2  0  0  0  0
 14 10  1  0  0  0  0
 15  7  1  0  0  0  0
 15 16  1  1  0  0  0
 17 15  1  0  0  0  0
 18 17  1  0  0  0  0
M  END
>  <REMARK>
  2 active torsions:
  status: ('A' for Active; 'I' for Inactive)
    1  A    between atoms: C_7  and  S_8 
    2  A    between atoms: S_8  and  O_10 

>  <TORSDO>
F 2

$$$$
C:\Users\siddh\.mgltools\PyRx\Ligands\ZINC000123637693_uff_E=274.86.pdbqt
 OpenBabel04182118313D

 20 20  0  0  1  0  0  0  0  0999 V2000
    2.2340    0.4670   -0.9760 N   0  0  0  0  0  0  0  0  0  0  0  0
    2.7370    0.5180   -2.2650 C   0  0  0  0  0  0  0  0  0  0  0  0
    3.8990    0.1940   -2.4660 O   0  0  0  0  0  0  0  0  0  0  0  0
    0.8810    0.9390   -0.6320 C   0  0  1  0  0  3  0  0  0  0  0  0
    0.0650   -0.1870    0.0200 C   0  0  0  0  0  1  0  0  0  0  0  0
    0.9330    2.1880    0.2800 C   0  0  0  0  0  2  0  0  0  0  0  0
    1.6420    3.3580   -0.4010 C   0  0  0  0  0  1  0  0  0  0  0  0
    3.1070   -0.0320    0.0970 C   0  0  0  0  0  2  0  0  0  0  0  0
    3.2960   -1.5230    0.0090 C   0  0  0  0  0  3  0  0  0  0  0  0
    2.6670   -2.2450   -0.9400 O   0  0  0  0  0  0  0  0  0  0  0  0
    2.7940   -3.1730   -0.9830 H   0  0  0  0  0  0  0  0  0  0  0  0
    4.0650   -2.1500    0.9180 O   0  0  0  0  0  0  0  0  0  0  0  0
    4.5060   -1.6550    1.5810 H   0  0  0  0  0  0  0  0  0  0  0  0
    1.9230    0.9970   -3.4630 C   0  0  1  0  0  3  0  0  0  0  0  0
    2.7470    1.4150   -4.7060 C   0  0  0  0  0  2  0  0  0  0  0  0
    1.7310    1.1810   -5.7610 C   0  0  0  0  0  0  0  0  0  0  0  0
    0.7200    0.4040   -5.3560 N   0  0  0  0  0  0  0  0  0  0  0  0
    1.8590    1.5380   -6.9220 O   0  0  0  0  0  0  0  0  0  0  0  0
    0.8890   -0.0200   -3.9950 C   0  0  0  0  0  2  0  0  0  0  0  0
    0.0010    0.0300   -5.9930 H   0  0  0  0  0  0  0  0  0  0  0  0
  1  4  1  0  0  0  0
  1  8  1  0  0  0  0
  2  1  1  0  0  0  0
  3  2  2  0  0  0  0
  4  5  1  1  0  0  0
  4  6  1  0  0  0  0
  7  6  1  0  0  0  0
  9  8  1  0  0  0  0
  9 12  1  0  0  0  0
 10  9  1  0  0  0  0
 11 10  1  0  0  0  0
 12 13  1  0  0  0  0
 14  2  1  1  0  0  0
 15 14  1  0  0  0  0
 16 17  1  0  0  0  0
 16 15  1  0  0  0  0
 17 19  1  0  0  0  0
 18 16  2  0  0  0  0
 19 14  1  0  0  0  0
 20 17  1  0  0  0  0
M  END
>  <REMARK>
  7 active torsions:
  status: ('A' for Active; 'I' for Inactive)
    1  A    between atoms: C_2  and  C_3 
    2  A    between atoms: C_3  and  N_5 
    3  A    between atoms: N_5  and  C_6 
       I    between atoms: N_5  and  C_10 
    4  A    between atoms: C_6  and  C_7 
    5  A    between atoms: C_7  and  O_8 
    6  A    between atoms: C_7  and  O_9 
    7  A    between atoms: C_10  and  C_12 

>  <TORSDO>
F 7

$$$$
C:\Users\siddh\.mgltools\PyRx\Ligands\ZINC000123637483_uff_E=294.00.pdbqt
 OpenBabel04182118313D

 20 20  0  0  1  0  0  0  0  0999 V2000
   -0.1320    0.2230   -1.7940 N   0  0  0  0  0  0  0  0  0  0  0  0
    0.4640    0.3250   -3.0420 C   0  0  0  0  0  0  0  0  0  0  0  0
    1.6730    0.1680   -3.1440 O   0  0  0  0  0  0  0  0  0  0  0  0
    0.6990   -0.0960   -0.6130 C   0  0  2  0  0  3  0  0  0  0  0  0
    0.1930   -1.3750    0.0680 C   0  0  0  0  0  1  0  0  0  0  0  0
    0.7710    1.0800    0.3870 C   0  0  0  0  0  2  0  0  0  0  0  0
    1.3950    2.3210   -0.2490 C   0  0  0  0  0  1  0  0  0  0  0  0
   -1.5640    0.4900   -1.6050 C   0  0  0  0  0  2  0  0  0  0  0  0
   -2.4240   -0.6910   -1.9510 C   0  0  0  0  0  3  0  0  0  0  0  0
   -1.8760   -1.8540   -2.3550 O   0  0  0  0  0  0  0  0  0  0  0  0
   -2.4260   -2.5820   -2.5670 H   0  0  0  0  0  0  0  0  0  0  0  0
   -3.7600   -0.6010   -1.8100 O   0  0  0  0  0  0  0  0  0  0  0  0
   -4.1480    0.2040   -1.5290 H   0  0  0  0  0  0  0  0  0  0  0  0
   -0.3020    0.6870   -4.3160 C   0  0  1  0  0  3  0  0  0  0  0  0
    0.5910    1.1830   -5.4850 C   0  0  0  0  0  2  0  0  0  0  0  0
   -0.2530    0.7970   -6.6380 C   0  0  0  0  0  0  0  0  0  0  0  0
   -1.2090   -0.0800   -6.3210 N   0  0  0  0  0  0  0  0  0  0  0  0
   -0.0260    1.1300   -7.7910 O   0  0  0  0  0  0  0  0  0  0  0  0
   -1.1720   -0.4320   -4.9320 C   0  0  0  0  0  2  0  0  0  0  0  0
   -1.8030   -0.5520   -7.0190 H   0  0  0  0  0  0  0  0  0  0  0  0
  1  8  1  0  0  0  0
  1  4  1  0  0  0  0
  2  1  1  0  0  0  0
  3  2  2  0  0  0  0
  4  5  1  1  0  0  0
  4  6  1  0  0  0  0
  7  6  1  0  0  0  0
  9 12  1  0  0  0  0
  9  8  1  0  0  0  0
 10  9  1  0  0  0  0
 11 10  1  0  0  0  0
 12 13  1  0  0  0  0
 14  2  1  1  0  0  0
 15 14  1  0  0  0  0
 16 17  1  0  0  0  0
 16 15  1  0  0  0  0
 17 19  1  0  0  0  0
 18 16  2  0  0  0  0
 19 14  1  0  0  0  0
 20 17  1  0  0  0  0
M  END
>  <REMARK>
  7 active torsions:
  status: ('A' for Active; 'I' for Inactive)
    1  A    between atoms: C_2  and  C_3 
    2  A    between atoms: C_3  and  N_5 
    3  A    between atoms: N_5  and  C_6 
       I    between atoms: N_5  and  C_10 
    4  A    between atoms: C_6  and  C_7 
    5  A    between atoms: C_7  and  O_8 
    6  A    between atoms: C_7  and  O_9 
    7  A    between atoms: C_10  and  C_12 

>  <TORSDO>
F 7

$$$$
C:\Users\siddh\.mgltools\PyRx\Ligands\ZINC000123637293_uff_E=296.06.pdbqt
 OpenBabel04182118313D

 20 20  0  0  1  0  0  0  0  0999 V2000
    2.1340   -0.1520   -1.1800 N   0  0  0  0  0  0  0  0  0  0  0  0
    2.6470    0.6510   -2.1880 C   0  0  0  0  0  0  0  0  0  0  0  0
    1.9030    1.0600   -3.0680 O   0  0  0  0  0  0  0  0  0  0  0  0
    0.6970   -0.5210   -1.1980 C   0  0  1  0  0  3  0  0  0  0  0  0
    0.5210   -2.0420   -1.2950 C   0  0  0  0  0  1  0  0  0  0  0  0
   -0.0780    0.0410    0.0160 C   0  0  0  0  0  2  0  0  0  0  0  0
   -0.0440    1.5660    0.0500 C   0  0  0  0  0  1  0  0  0  0  0  0
    2.9850   -0.6270   -0.0800 C   0  0  0  0  0  2  0  0  0  0  0  0
    3.6480   -1.9480   -0.3750 C   0  0  0  0  0  3  0  0  0  0  0  0
    3.4630   -2.5740   -1.5530 O   0  0  0  0  0  0  0  0  0  0  0  0
    3.8830   -3.3950   -1.7190 H   0  0  0  0  0  0  0  0  0  0  0  0
    4.4460   -2.5090    0.5520 O   0  0  0  0  0  0  0  0  0  0  0  0
    4.5820   -2.0820    1.3750 H   0  0  0  0  0  0  0  0  0  0  0  0
    4.1200    1.0680   -2.2640 C   0  0  2  0  0  3  0  0  0  0  0  0
    4.4690    2.0200   -3.4420 C   0  0  0  0  0  2  0  0  0  0  0  0
    5.8890    1.6580   -3.6650 C   0  0  0  0  0  0  0  0  0  0  0  0
    6.2380    0.5130   -3.0760 N   0  0  0  0  0  0  0  0  0  0  0  0
    6.6360    2.2580   -4.4210 O   0  0  0  0  0  0  0  0  0  0  0  0
    5.1390   -0.0880   -2.3860 C   0  0  0  0  0  2  0  0  0  0  0  0
    7.1440    0.0450   -3.2250 H   0  0  0  0  0  0  0  0  0  0  0  0
  1  8  1  0  0  0  0
  2  1  1  0  0  0  0
  3  2  2  0  0  0  0
  4  5  1  1  0  0  0
  4  1  1  0  0  0  0
  4  6  1  0  0  0  0
  6  7  1  0  0  0  0
  9  8  1  0  0  0  0
  9 12  1  0  0  0  0
 10  9  1  0  0  0  0
 11 10  1  0  0  0  0
 12 13  1  0  0  0  0
 14  2  1  6  0  0  0
 15 14  1  0  0  0  0
 16 15  1  0  0  0  0
 16 17  1  0  0  0  0
 17 19  1  0  0  0  0
 18 16  2  0  0  0  0
 19 14  1  0  0  0  0
 20 17  1  0  0  0  0
M  END
>  <REMARK>
  7 active torsions:
  status: ('A' for Active; 'I' for Inactive)
    1  A    between atoms: C_2  and  C_3 
    2  A    between atoms: C_3  and  N_5 
    3  A    between atoms: N_5  and  C_6 
       I    between atoms: N_5  and  C_10 
    4  A    between atoms: C_6  and  C_7 
    5  A    between atoms: C_7  and  O_8 
    6  A    between atoms: C_7  and  O_9 
    7  A    between atoms: C_10  and  C_12 

>  <TORSDO>
F 7

$$$$
C:\Users\siddh\.mgltools\PyRx\Ligands\ZINC000122994856_uff_E=172.20.pdbqt
 OpenBabel04182118313D

 21 21  0  0  1  0  0  0  0  0999 V2000
    0.0790   -0.0600    2.4380 N   0  0  0  0  0  0  0  0  0  0  0  0
    0.7680    0.0690    3.6060 C   0  0  0  0  0  0  0  0  0  0  0  0
    1.9570   -0.2210    3.6510 O   0  0  0  0  0  0  0  0  0  0  0  0
   -0.9190    0.1930    2.4070 H   0  0  0  0  0  0  0  0  0  0  0  0
    0.7310   -0.5520    1.2290 C   0  0  2  0  0  3  0  0  0  0  0  0
    0.0080   -0.0080   -0.0370 C   0  0  0  0  0  3  0  0  0  0  0  0
   -0.0240    1.5340   -0.0170 C   0  0  0  0  0  1  0  0  0  0  0  0
    0.6940   -0.4620   -1.3360 C   0  0  0  0  0  1  0  0  0  0  0  0
    0.7930   -2.0660    1.2890 C   0  0  0  0  0  3  0  0  0  0  0  0
    1.5480   -2.7540    0.4120 O   0  0  0  0  0  0  0  0  0  0  0  0
    1.5810   -3.6890    0.4550 H   0  0  0  0  0  0  0  0  0  0  0  0
    0.1280   -2.7380    2.2500 O   0  0  0  0  0  0  0  0  0  0  0  0
   -0.4010   -2.2730    2.8680 H   0  0  0  0  0  0  0  0  0  0  0  0
    0.0690    0.5720    4.8540 C   0  0  2  0  0  3  0  0  0  0  0  0
   -0.5190    1.9830    4.6260 C   0  0  0  0  0  2  0  0  0  0  0  0
   -1.0050    2.6040    5.8500 N   0  0  0  0  0  0  0  0  0  0  0  0
   -0.7060    2.1420    7.0970 C   0  0  0  0  0  0  0  0  0  0  0  0
   -1.5980    3.4440    5.7610 H   0  0  0  0  0  0  0  0  0  0  0  0
    0.2340    0.9820    7.3100 C   0  0  0  0  0  2  0  0  0  0  0  0
   -1.2160    2.6720    8.0730 O   0  0  0  0  0  0  0  0  0  0  0  0
    1.0200    0.6370    6.0470 C   0  0  0  0  0  2  0  0  0  0  0  0
  1  2  1  0  0  0  0
  2  3  2  0  0  0  0
  4  1  1  0  0  0  0
  5  6  1  6  0  0  0
  5  9  1  0  0  0  0
  5  1  1  0  0  0  0
  6  7  1  0  0  0  0
  8  6  1  0  0  0  0
  9 12  1  0  0  0  0
 10 11  1  0  0  0  0
 10  9  1  0  0  0  0
 12 13  1  0  0  0  0
 14  2  1  6  0  0  0
 14 21  1  0  0  0  0
 15 14  1  0  0  0  0
 15 16  1  0  0  0  0
 16 17  1  0  0  0  0
 17 19  1  0  0  0  0
 17 20  2  0  0  0  0
 18 16  1  0  0  0  0
 21 19  1  0  0  0  0
M  END
>  <REMARK>
  6 active torsions:
  status: ('A' for Active; 'I' for Inactive)
    1  A    between atoms: C_2  and  C_4 
    2  A    between atoms: C_4  and  N_5 
    3  A    between atoms: C_4  and  C_15 
       I    between atoms: N_5  and  C_6 
    4  A    between atoms: C_6  and  C_8 
    5  A    between atoms: C_15  and  O_16 
    6  A    between atoms: C_15  and  O_17 

>  <TORSDO>
F 6

$$$$
C:\Users\siddh\.mgltools\PyRx\Ligands\ZINC000122994461_uff_E=167.87.pdbqt
 OpenBabel04182118313D

 21 21  0  0  1  0  0  0  0  0999 V2000
    0.0960   -0.0350    2.4340 N   0  0  0  0  0  0  0  0  0  0  0  0
    0.7700    0.0320    3.6170 C   0  0  0  0  0  0  0  0  0  0  0  0
    1.9430   -0.3130    3.6750 O   0  0  0  0  0  0  0  0  0  0  0  0
   -0.8790    0.2970    2.3920 H   0  0  0  0  0  0  0  0  0  0  0  0
    0.7380   -0.5380    1.2240 C   0  0  2  0  0  3  0  0  0  0  0  0
    0.0060   -0.0070   -0.0440 C   0  0  0  0  0  3  0  0  0  0  0  0
   -0.0260    1.5360   -0.0350 C   0  0  0  0  0  1  0  0  0  0  0  0
    0.6860   -0.4620   -1.3470 C   0  0  0  0  0  1  0  0  0  0  0  0
    0.8060   -2.0540    1.2960 C   0  0  0  0  0  3  0  0  0  0  0  0
    1.5350   -2.7490    0.4030 O   0  0  0  0  0  0  0  0  0  0  0  0
    1.5720   -3.6840    0.4540 H   0  0  0  0  0  0  0  0  0  0  0  0
    0.1680   -2.7200    2.2790 O   0  0  0  0  0  0  0  0  0  0  0  0
   -0.3440   -2.2500    2.9080 H   0  0  0  0  0  0  0  0  0  0  0  0
    0.0760    0.5530    4.8610 C   0  0  1  0  0  3  0  0  0  0  0  0
   -1.0940   -0.3830    5.2390 C   0  0  0  0  0  2  0  0  0  0  0  0
   -1.6610   -0.0980    6.5490 N   0  0  0  0  0  0  0  0  0  0  0  0
   -1.0590    0.7080    7.4700 C   0  0  0  0  0  0  0  0  0  0  0  0
   -2.5610   -0.5410    6.7900 H   0  0  0  0  0  0  0  0  0  0  0  0
    0.3060    1.3040    7.2320 C   0  0  0  0  0  2  0  0  0  0  0  0
   -1.6380    0.9610    8.5160 O   0  0  0  0  0  0  0  0  0  0  0  0
    1.0250    0.6480    6.0530 C   0  0  0  0  0  2  0  0  0  0  0  0
  1  2  1  0  0  0  0
  2  3  2  0  0  0  0
  4  1  1  0  0  0  0
  5  6  1  6  0  0  0
  5  9  1  0  0  0  0
  5  1  1  0  0  0  0
  6  7  1  0  0  0  0
  8  6  1  0  0  0  0
  9 12  1  0  0  0  0
 10 11  1  0  0  0  0
 10  9  1  0  0  0  0
 12 13  1  0  0  0  0
 14  2  1  6  0  0  0
 14 15  1  0  0  0  0
 14 21  1  0  0  0  0
 15 16  1  0  0  0  0
 16 18  1  0  0  0  0
 16 17  1  0  0  0  0
 17 20  2  0  0  0  0
 19 17  1  0  0  0  0
 21 19  1  0  0  0  0
M  END
>  <REMARK>
  6 active torsions:
  status: ('A' for Active; 'I' for Inactive)
    1  A    between atoms: C_2  and  C_4 
    2  A    between atoms: C_4  and  N_5 
    3  A    between atoms: C_4  and  C_15 
       I    between atoms: N_5  and  C_6 
    4  A    between atoms: C_6  and  C_8 
    5  A    between atoms: C_15  and  O_16 
    6  A    between atoms: C_15  and  O_17 

>  <TORSDO>
F 6

$$$$
C:\Users\siddh\.mgltools\PyRx\Ligands\ZINC000122994222_uff_E=157.79.pdbqt
 OpenBabel04182118313D

 21 21  0  0  1  0  0  0  0  0999 V2000
   -0.0210   -0.2030    2.4270 N   0  0  0  0  0  0  0  0  0  0  0  0
    0.1980   -0.8770    3.5940 C   0  0  0  0  0  0  0  0  0  0  0  0
    1.0350   -1.7670    3.6390 O   0  0  0  0  0  0  0  0  0  0  0  0
   -0.7670    0.5020    2.3950 H   0  0  0  0  0  0  0  0  0  0  0  0
    0.7310   -0.4970    1.2110 C   0  0  1  0  0  3  0  0  0  0  0  0
    0.0340    0.0970   -0.0500 C   0  0  0  0  0  3  0  0  0  0  0  0
   -0.0360    1.6340   -0.0860 C   0  0  0  0  0  1  0  0  0  0  0  0
    0.7080   -0.4210   -1.3310 C   0  0  0  0  0  1  0  0  0  0  0  0
    2.1630   -0.0380    1.3690 C   0  0  0  0  0  3  0  0  0  0  0  0
    2.4390    1.2450    1.6760 O   0  0  0  0  0  0  0  0  0  0  0  0
    3.3280    1.5230    1.7720 H   0  0  0  0  0  0  0  0  0  0  0  0
    3.1730   -0.9160    1.2240 O   0  0  0  0  0  0  0  0  0  0  0  0
    2.9900   -1.8100    1.0100 H   0  0  0  0  0  0  0  0  0  0  0  0
   -0.6090   -0.5300    4.8400 C   0  0  1  0  0  3  0  0  0  0  0  0
   -2.1310   -0.6240    4.5690 C   0  0  0  0  0  2  0  0  0  0  0  0
   -2.9390   -0.4860    5.7720 N   0  0  0  0  0  0  0  0  0  0  0  0
   -2.4290   -0.5740    7.0330 C   0  0  0  0  0  0  0  0  0  0  0  0
   -3.9490   -0.3150    5.6560 H   0  0  0  0  0  0  0  0  0  0  0  0
   -0.9830   -0.9230    7.2820 C   0  0  0  0  0  2  0  0  0  0  0  0
   -3.1570   -0.3580    7.9910 O   0  0  0  0  0  0  0  0  0  0  0  0
   -0.2830   -1.4420    6.0240 C   0  0  0  0  0  2  0  0  0  0  0  0
  1  2  1  0  0  0  0
  2  3  2  0  0  0  0
  4  1  1  0  0  0  0
  5  6  1  6  0  0  0
  5  9  1  0  0  0  0
  5  1  1  0  0  0  0
  7  6  1  0  0  0  0
  8  6  1  0  0  0  0
  9 10  1  0  0  0  0
 10 11  1  0  0  0  0
 12  9  1  0  0  0  0
 13 12  1  0  0  0  0
 14  2  1  6  0  0  0
 14 21  1  0  0  0  0
 15 14  1  0  0  0  0
 15 16  1  0  0  0  0
 16 17  1  0  0  0  0
 17 19  1  0  0  0  0
 17 20  2  0  0  0  0
 18 16  1  0  0  0  0
 21 19  1  0  0  0  0
M  END
>  <REMARK>
  6 active torsions:
  status: ('A' for Active; 'I' for Inactive)
    1  A    between atoms: C_2  and  C_4 
    2  A    between atoms: C_4  and  N_5 
    3  A    between atoms: C_4  and  C_15 
       I    between atoms: N_5  and  C_6 
    4  A    between atoms: C_6  and  C_8 
    5  A    between atoms: C_15  and  O_16 
    6  A    between atoms: C_15  and  O_17 

>  <TORSDO>
F 6

$$$$
C:\Users\siddh\.mgltools\PyRx\Ligands\ZINC000110682622_uff_E=1456.88.pdbqt
 OpenBabel04182118313D

 20 21  0  0  1  0  0  0  0  0999 V2000
    0.7870   -0.4100   -1.1810 C   0  0  2  0  0  3  0  0  0  0  0  0
    0.7140   -1.9030   -1.5250 C   0  0  0  0  0  0  0  0  0  0  0  0
   -0.3820   -2.4410   -1.6100 O   0  0  0  0  0  0  0  0  0  0  0  0
    1.8330   -2.6520   -1.7240 N   0  0  0  0  0  0  0  0  0  0  0  0
    3.1640   -2.0800   -1.7490 C   0  0  0  0  0  2  0  0  0  0  0  0
    3.1160   -0.5820   -2.0350 C   0  0  0  0  0  2  0  0  0  0  0  0
    2.2020    0.0440   -1.0920 N   0  0  0  0  0  0  0  0  0  0  0  0
    2.6640    1.0070   -0.2050 C   0  0  0  0  0  0  0  0  0  0  0  0
    1.8960    1.5820    0.5480 O   0  0  0  0  0  0  0  0  0  0  0  0
    1.7380   -3.6700   -1.8640 H   0  0  0  0  0  0  0  0  0  0  0  0
   -0.1080   -0.1550    0.0690 C   0  0  0  0  0  2  0  0  0  0  0  0
    0.3850   -0.8780    1.3320 C   0  0  0  0  0  1  0  0  0  0  0  0
    4.1420    1.3760   -0.1340 C   0  0  2  0  0  3  0  0  0  0  0  0
    4.4410    2.3360    1.0320 C   0  0  2  0  0  3  0  0  0  0  0  0
    4.5090    2.8320   -0.4060 C   0  0  0  0  0  2  0  0  0  0  0  0
    5.8310    2.3580    1.6160 C   0  0  0  0  0  3  0  0  0  0  0  0
    6.0910    3.1460    2.6760 O   0  0  0  0  0  0  0  0  0  0  0  0
    6.9510    3.1650    3.0460 H   0  0  0  0  0  0  0  0  0  0  0  0
    6.8140    1.5880    1.1070 O   0  0  0  0  0  0  0  0  0  0  0  0
    6.6420    1.0360    0.3690 H   0  0  0  0  0  0  0  0  0  0  0  0
  1  7  1  0  0  0  0
  1 11  1  1  0  0  0
  2  1  1  0  0  0  0
  3  2  2  0  0  0  0
  4  2  1  0  0  0  0
  5  4  1  0  0  0  0
  6  5  1  0  0  0  0
  6  7  1  0  0  0  0
  7  8  1  0  0  0  0
  8  9  2  0  0  0  0
 10  4  1  0  0  0  0
 11 12  1  0  0  0  0
 13  8  1  1  0  0  0
 13 14  1  0  0  0  0
 14 16  1  6  0  0  0
 15 13  1  0  0  0  0
 15 14  1  0  0  0  0
 16 17  1  0  0  0  0
 17 18  1  0  0  0  0
 19 16  1  0  0  0  0
 20 19  1  0  0  0  0
M  END
>  <REMARK>
  5 active torsions:
  status: ('A' for Active; 'I' for Inactive)
    1  A    between atoms: C_2  and  C_3 
       I    between atoms: N_9  and  C_10 
    2  A    between atoms: C_10  and  C_12 
    3  A    between atoms: C_14  and  C_15 
    4  A    between atoms: C_15  and  O_16 
    5  A    between atoms: C_15  and  O_17 

>  <TORSDO>
F 5

$$$$
C:\Users\siddh\.mgltools\PyRx\Ligands\ZINC000108423876_uff_E=125.51.pdbqt
 OpenBabel04182118313D

 21 21  0  0  1  0  0  0  0  0999 V2000
   -4.2050   -4.5510    0.0180 C   0  0  1  0  0  3  0  0  0  0  0  0
   -5.2970   -3.7470    0.0210 N   0  0  0  0  0  0  0  0  0  0  0  0
   -5.1730   -2.7340    0.0160 H   0  0  0  0  0  0  0  0  0  0  0  0
   -6.5270   -4.2530    0.0300 N   0  0  0  0  0  0  0  0  0  0  0  0
   -7.3260   -3.6200    0.0330 H   0  0  0  0  0  0  0  0  0  0  0  0
   -6.7400   -5.5920    0.0370 C   0  0  2  0  0  3  0  0  0  0  0  0
   -5.6680   -6.4570    0.0320 N   0  0  0  0  0  0  0  0  0  0  0  0
   -4.3910   -5.9360    0.0240 C   0  0  0  0  0  0  0  0  0  0  0  0
   -3.4250   -6.6850    0.0240 O   0  0  0  0  0  0  0  0  0  0  0  0
   -2.8230   -3.9590    0.0080 C   0  0  0  0  0  2  0  0  0  0  0  0
   -2.8280   -2.4220    0.0140 C   0  0  0  0  0  2  0  0  0  0  0  0
   -1.4320   -1.8650    0.0050 C   0  0  0  0  0  0  0  0  0  0  0  0
   -0.4670   -2.6200   -0.0080 O   0  0  0  0  0  0  0  0  0  0  0  0
   -1.2450   -0.5210    0.0110 O   0  0  0  0  0  0  0  0  0  0  0  0
    0.0210    0.0280    0.0020 C   0  0  0  0  0  2  0  0  0  0  0  0
   -0.0470    1.5440    0.0110 C   0  0  0  0  0  1  0  0  0  0  0  0
   -5.8270   -7.8600    0.0430 N   0  0  0  0  0  0  0  0  0  0  0  0
   -6.8270   -8.1520    0.0590 H   0  0  0  0  0  0  0  0  0  0  0  0
   -5.3980   -8.2470   -0.8290 H   0  0  0  0  0  0  0  0  0  0  0  0
   -8.4430   -6.1660    0.0510 S   0  0  0  0  0  0  0  0  0  0  0  0
   -9.2830   -5.0970    0.0530 H   0  0  0  0  0  0  0  0  0  0  0  0
  1 10  1  6  0  0  0
  1  2  1  0  0  0  0
  1  8  1  0  0  0  0
  2  4  1  0  0  0  0
  3  2  1  0  0  0  0
  4  5  1  0  0  0  0
  4  6  1  0  0  0  0
  6 20  1  6  0  0  0
  7  6  1  0  0  0  0
  7 17  1  0  0  0  0
  8  9  2  0  0  0  0
  8  7  1  0  0  0  0
 10 11  1  0  0  0  0
 12 14  1  0  0  0  0
 12 11  1  0  0  0  0
 13 12  2  0  0  0  0
 15 14  1  0  0  0  0
 15 16  1  0  0  0  0
 17 18  1  0  0  0  0
 19 17  1  0  0  0  0
 20 21  1  0  0  0  0
M  END
>  <REMARK>
  7 active torsions:
  status: ('A' for Active; 'I' for Inactive)
    1  A    between atoms: C_2  and  O_3 
    2  A    between atoms: O_3  and  C_4 
    3  A    between atoms: C_4  and  C_6 
    4  A    between atoms: C_6  and  C_7 
    5  A    between atoms: C_7  and  C_8 
    6  A    between atoms: C_13  and  S_14 
    7  A    between atoms: N_15  and  N_16 

>  <TORSDO>
F 7

$$$$
C:\Users\siddh\.mgltools\PyRx\Ligands\ZINC000103016242_uff_E=330.76.pdbqt
 OpenBabel04182118313D

 20 21  0  0  1  0  0  0  0  0999 V2000
    0.0220    0.0510   -0.0240 O   0  0  0  0  0  0  0  0  0  0  0  0
    0.0270    1.2720   -0.0090 C   0  0  0  0  0  0  0  0  0  0  0  0
   -1.1020    2.0000    0.0130 N   0  0  0  0  0  0  0  0  0  0  0  0
   -0.7490    3.3470    0.0290 C   0  0  0  0  0  0  0  0  0  0  0  0
    0.6190    3.4810    0.0100 C   0  0  0  0  0  0  0  0  0  0  0  0
    1.2200    4.7410    0.0110 C   0  0  0  0  0  3  0  0  0  0  0  0
    0.3950    5.8790    0.0320 C   0  0  0  0  0  3  0  0  0  0  0  0
   -1.0070    5.7400    0.0560 C   0  0  0  0  0  3  0  0  0  0  0  0
   -1.5960    4.4620    0.0580 C   0  0  0  0  0  0  0  0  0  0  0  0
    1.2850    2.1250   -0.0140 C   0  0  2  0  0  3  0  0  0  0  0  0
   -2.0530    1.6080    0.0070 H   0  0  0  0  0  0  0  0  0  0  0  0
   -3.4040    4.3060    0.0840 S   0  0  0  0  0  0  0  0  0  0  0  0
   -3.9640    4.2300   -1.5460 O   0  0  0  0  0  0  0  0  0  0  0  0
   -3.5870    3.4500   -1.9820 H   0  0  0  0  0  0  0  0  0  0  0  0
   -3.8640    2.8850    0.9490 O   0  0  0  0  0  0  0  0  0  0  0  0
   -3.4970    2.1040    0.5060 H   0  0  0  0  0  0  0  0  0  0  0  0
   -4.0610    5.6880    0.8820 O   0  0  0  0  0  0  0  0  0  0  0  0
   -3.8070    6.4910    0.4010 H   0  0  0  0  0  0  0  0  0  0  0  0
    2.0130    1.9570   -1.1980 O   0  0  0  0  0  0  0  0  0  0  0  0
    2.3630    1.0280   -1.1810 H   0  0  0  0  0  0  0  0  0  0  0  0
  1  2  2  0  0  0  0
  2  3  1  0  0  0  0
  3  4  1  0  0  0  0
  4  9  1  0  0  0  0
  5  6  1  0  0  0  0
  5  4  2  0  0  0  0
  6  7  2  0  0  0  0
  7  8  1  0  0  0  0
  8  9  2  0  0  0  0
  9 12  1  0  0  0  0
 10 19  1  6  0  0  0
 10  2  1  0  0  0  0
 10  5  1  0  0  0  0
 11  3  1  0  0  0  0
 12 17  1  0  0  0  0
 12 15  1  0  0  0  0
 13 12  1  0  0  0  0
 14 13  1  0  0  0  0
 16 15  1  0  0  0  0
 18 17  1  0  0  0  0
 19 20  1  0  0  0  0
M  END
>  <REMARK>
  5 active torsions:
  status: ('A' for Active; 'I' for Inactive)
    1  A    between atoms: C_9  and  S_10 
    2  A    between atoms: S_10  and  O_11 
    3  A    between atoms: S_10  and  O_12 
    4  A    between atoms: S_10  and  O_13 
    5  A    between atoms: C_14  and  O_15 

>  <TORSDO>
F 5

$$$$
C:\Users\siddh\.mgltools\PyRx\Ligands\ZINC000102571869_uff_E=374.35.pdbqt
 OpenBabel04182118313D

 19 20  0  0  1  0  0  0  0  0999 V2000
   -0.0130    1.4500    0.0100 C   0  0  0  0  0  1  0  0  0  0  0  0
    0.0310   -0.0460    0.0020 C   0  0  1  0  0  3  0  0  0  0  0  0
   -1.0690   -0.8410    0.0100 N   0  0  0  0  0  0  0  0  0  0  0  0
   -2.0440   -0.5440    0.0220 H   0  0  0  0  0  0  0  0  0  0  0  0
   -0.6100   -2.0800   -0.0020 N   0  0  0  0  0  0  0  0  0  0  0  0
    0.7190   -2.0380   -0.0180 C   0  0  2  0  0  3  0  0  0  0  0  0
    1.4710   -3.1650   -0.0340 N   0  0  0  0  0  0  0  0  0  0  0  0
    2.4890   -3.1060   -0.0430 H   0  0  0  0  0  0  0  0  0  0  0  0
    0.8480   -4.3860   -0.0390 C   0  0  0  0  0  0  0  0  0  0  0  0
    1.6890   -5.6320   -0.0440 C   0  0  0  0  0  1  0  0  0  0  0  0
   -0.5790   -4.4630   -0.0210 C   0  0  0  0  0  0  0  0  0  0  0  0
   -1.3100   -3.2510    0.0020 C   0  0  0  0  0  0  0  0  0  0  0  0
   -2.5300   -3.2450    0.0170 O   0  0  0  0  0  0  0  0  0  0  0  0
    1.1800   -0.7750   -0.0150 N   0  0  0  0  0  0  0  0  0  0  0  0
    2.1120   -0.4580   -0.0230 H   0  0  0  0  0  0  0  0  0  0  0  0
   -1.2970   -5.7980   -0.0130 C   0  0  0  0  0  2  0  0  0  0  0  0
   -1.6390   -6.2220    1.4130 C   0  0  0  0  0  2  0  0  0  0  0  0
   -2.2810   -7.4660    1.3750 O   0  0  0  0  0  0  0  0  0  0  0  0
   -2.4740   -7.7080    2.3170 H   0  0  0  0  0  0  0  0  0  0  0  0
  2  1  1  6  0  0  0
  2  3  1  0  0  0  0
  3  4  1  0  0  0  0
  5 12  1  0  0  0  0
  5  3  1  0  0  0  0
  6  7  1  1  0  0  0
  6 14  1  0  0  0  0
  6  5  1  0  0  0  0
  8  7  1  0  0  0  0
  9  7  1  0  0  0  0
  9 11  2  0  0  0  0
 10  9  1  0  0  0  0
 11 16  1  0  0  0  0
 11 12  1  0  0  0  0
 12 13  2  0  0  0  0
 14  2  1  0  0  0  0
 15 14  1  0  0  0  0
 16 17  1  0  0  0  0
 18 17  1  0  0  0  0
 18 19  1  0  0  0  0
M  END
>  <REMARK>
  3 active torsions:
  status: ('A' for Active; 'I' for Inactive)
    1  A    between atoms: C_11  and  C_12 
    2  A    between atoms: C_12  and  C_13 
    3  A    between atoms: C_13  and  O_14 

>  <TORSDO>
F 3

$$$$
C:\Users\siddh\.mgltools\PyRx\Ligands\ZINC000101168853_uff_E=348.11.pdbqt
 OpenBabel04182118313D

 20 21  0  0  1  0  0  0  0  0999 V2000
    1.4180   -3.8940   -2.4880 C   0  0  0  0  0  0  0  0  0  0  0  0
    0.5190   -4.6370   -3.2940 C   0  0  0  0  0  3  0  0  0  0  0  0
    0.5780   -6.0360   -3.2560 C   0  0  0  0  0  0  0  0  0  0  0  0
   -0.1850   -6.7170   -3.9180 O   0  0  0  0  0  0  0  0  0  0  0  0
    1.5160   -6.6110   -2.4500 N   0  0  0  0  0  0  0  0  0  0  0  0
    1.7760   -7.8910   -2.2680 N   0  0  0  0  0  0  0  0  0  0  0  0
    1.3130   -8.6850   -2.7100 H   0  0  0  0  0  0  0  0  0  0  0  0
    2.7880   -7.9300   -1.3680 C   0  0  1  0  0  3  0  0  0  0  0  0
    3.4120   -9.1900   -0.8740 C   0  0  0  0  0  1  0  0  0  0  0  0
    3.1690   -6.6830   -0.9790 N   0  0  0  0  0  0  0  0  0  0  0  0
    2.3450   -5.8980   -1.6920 C   0  0  1  0  0  3  0  0  0  0  0  0
    2.3180   -4.5430   -1.6830 N   0  0  0  0  0  0  0  0  0  0  0  0
    2.9570   -4.0150   -1.0880 H   0  0  0  0  0  0  0  0  0  0  0  0
    3.8700   -6.4230   -0.3380 H   0  0  0  0  0  0  0  0  0  0  0  0
    1.3680   -2.3900   -2.4880 C   0  0  0  0  0  2  0  0  0  0  0  0
    0.8100   -1.8560   -1.1960 C   0  0  0  0  0  0  0  0  0  0  0  0
    0.4530   -2.6230   -0.3100 O   0  0  0  0  0  0  0  0  0  0  0  0
    0.6590   -0.5160   -1.0420 O   0  0  0  0  0  0  0  0  0  0  0  0
    0.0210    0.0350    0.0510 C   0  0  0  0  0  2  0  0  0  0  0  0
    0.0250    1.5500   -0.0510 C   0  0  0  0  0  1  0  0  0  0  0  0
  1 15  1  0  0  0  0
  1 12  1  0  0  0  0
  2  3  1  0  0  0  0
  2  1  2  0  0  0  0
  3  5  1  0  0  0  0
  4  3  2  0  0  0  0
  5  6  1  0  0  0  0
  6  8  1  0  0  0  0
  7  6  1  0  0  0  0
  8 10  1  0  0  0  0
  8  9  1  6  0  0  0
 10 14  1  0  0  0  0
 11  5  1  6  0  0  0
 11 12  1  0  0  0  0
 11 10  1  0  0  0  0
 12 13  1  0  0  0  0
 15 16  1  0  0  0  0
 16 18  1  0  0  0  0
 16 17  2  0  0  0  0
 18 19  1  0  0  0  0
 20 19  1  0  0  0  0
M  END
>  <REMARK>
  4 active torsions:
  status: ('A' for Active; 'I' for Inactive)
    1  A    between atoms: C_2  and  O_3 
    2  A    between atoms: O_3  and  C_4 
    3  A    between atoms: C_4  and  C_6 
    4  A    between atoms: C_6  and  C_7 

>  <TORSDO>
F 4

$$$$
C:\Users\siddh\.mgltools\PyRx\Ligands\ZINC000101036960_uff_E=1426.44.pdbqt
 OpenBabel04182118313D

 18 19  0  0  0  0  0  0  0  0999 V2000
   -0.0750    1.3940    0.1430 C   0  0  0  0  0  1  0  0  0  0  0  0
   -0.0030   -0.1300    0.0950 C   0  0  0  0  0  0  0  0  0  0  0  0
   -0.1220   -0.7800   -1.1430 C   0  0  0  0  0  3  0  0  0  0  0  0
   -0.1650   -2.2830   -1.3320 C   0  0  0  0  0  0  0  0  0  0  0  0
   -0.1650   -3.0590   -0.3970 O   0  0  0  0  0  0  0  0  0  0  0  0
   -0.2630   -2.8050   -2.5780 N   0  0  0  0  0  0  0  0  0  0  0  0
   -0.3320   -2.0500   -3.6970 C   0  0  0  0  0  0  0  0  0  0  0  0
   -0.4140   -2.6010   -4.7840 O   0  0  0  0  0  0  0  0  0  0  0  0
   -0.3180   -0.6940   -3.6320 N   0  0  0  0  0  0  0  0  0  0  0  0
   -0.2300   -0.0210   -2.4540 C   0  0  0  0  0  0  0  0  0  0  0  0
   -0.2150    1.1980   -2.4910 O   0  0  0  0  0  0  0  0  0  0  0  0
   -0.3740   -0.1550   -4.5110 H   0  0  0  0  0  0  0  0  0  0  0  0
   -0.2860   -3.7850   -2.6730 H   0  0  0  0  0  0  0  0  0  0  0  0
    0.1930   -0.8600    1.3350 N   0  0  0  0  0  4  0  0  0  0  0  0
    0.3100   -1.8710    1.3210 H   0  0  0  0  0  0  0  0  0  0  0  0
    0.3320   -0.2490    2.6550 C   0  0  0  0  0  3  0  0  0  0  0  0
    0.6730   -1.1740    3.8200 C   0  0  0  0  0  2  0  0  0  0  0  0
   -0.7740   -0.7970    3.5430 C   0  0  0  0  0  2  0  0  0  0  0  0
  2  1  1  0  0  0  0
  2 14  2  0  0  0  0
  3  2  1  0  0  0  0
  4  3  1  0  0  0  0
  4  5  2  0  0  0  0
  6  4  1  0  0  0  0
  7  9  1  0  0  0  0
  7  6  1  0  0  0  0
  8  7  2  0  0  0  0
  9 10  1  0  0  0  0
 10  3  1  0  0  0  0
 11 10  2  0  0  0  0
 12  9  1  0  0  0  0
 13  6  1  0  0  0  0
 14 16  1  0  0  0  0
 15 14  1  0  0  0  0
 16 18  1  0  0  0  0
 16 17  1  0  0  0  0
 18 17  1  0  0  0  0
M  END
>  <REMARK>
  2 active torsions:
  status: ('A' for Active; 'I' for Inactive)
    1  A    between atoms: C_2  and  N_3 
    2  A    between atoms: N_3  and  C_4 

>  <TORSDO>
F 2

$$$$
C:\Users\siddh\.mgltools\PyRx\Ligands\ZINC000101012615_uff_E=511.85.pdbqt
 OpenBabel04182118313D

 21 23  0  0  1  0  0  0  0  0999 V2000
   -0.0120    1.4930    0.0100 C   0  0  0  0  0  1  0  0  0  0  0  0
    0.0140   -0.0010    0.0010 C   0  0  0  0  0  0  0  0  0  0  0  0
   -1.2010   -0.7260    0.0040 C   0  0  0  0  0  3  0  0  0  0  0  0
   -1.1510   -2.1270   -0.0040 C   0  0  0  0  0  0  0  0  0  0  0  0
   -2.1720   -2.7930   -0.0030 O   0  0  0  0  0  0  0  0  0  0  0  0
    0.0760   -2.7210   -0.0140 N   0  0  0  0  0  0  0  0  0  0  0  0
    0.3770   -4.0060   -0.0220 N   0  0  0  0  0  0  0  0  0  0  0  0
   -0.2710   -4.7930   -0.0230 H   0  0  0  0  0  0  0  0  0  0  0  0
    1.7330   -4.0560   -0.0290 C   0  0  1  0  0  3  0  0  0  0  0  0
    2.4940   -5.2640   -0.0400 N   0  0  0  0  0  0  0  0  0  0  0  0
    1.9880   -6.5040   -0.0490 C   0  0  0  0  0  0  0  0  0  0  0  0
    0.7890   -6.7440   -0.0500 O   0  0  0  0  0  0  0  0  0  0  0  0
    3.0470   -7.5650   -0.0590 C   0  0  0  0  0  3  0  0  0  0  0  0
    4.3540   -6.7260   -0.0530 C   0  0  0  0  0  3  0  0  0  0  0  0
    3.8320   -5.3230   -0.0430 C   0  0  0  0  0  0  0  0  0  0  0  0
    4.5500   -4.3340   -0.0380 O   0  0  0  0  0  0  0  0  0  0  0  0
    2.2880   -2.8140   -0.0250 N   0  0  0  0  0  0  0  0  0  0  0  0
    1.2080   -2.0200   -0.0160 C   0  0  2  0  0  3  0  0  0  0  0  0
    1.2120   -0.6650   -0.0090 N   0  0  0  0  0  0  0  0  0  0  0  0
    2.0920   -0.1480   -0.0120 H   0  0  0  0  0  0  0  0  0  0  0  0
    3.2400   -2.5630   -0.0290 H   0  0  0  0  0  0  0  0  0  0  0  0
  2  3  2  0  0  0  0
  2  1  1  0  0  0  0
  4  5  2  0  0  0  0
  4  3  1  0  0  0  0
  6  4  1  0  0  0  0
  7  6  1  0  0  0  0
  8  7  1  0  0  0  0
  9 10  1  6  0  0  0
  9 17  1  0  0  0  0
  9  7  1  0  0  0  0
 11 10  1  0  0  0  0
 12 11  2  0  0  0  0
 13 14  2  0  0  0  0
 13 11  1  0  0  0  0
 14 15  1  0  0  0  0
 15 10  1  0  0  0  0
 15 16  2  0  0  0  0
 18 17  1  1  0  0  0
 18  6  1  0  0  0  0
 18 19  1  0  0  0  0
 19  2  1  0  0  0  0
 20 19  1  0  0  0  0
 21 17  1  0  0  0  0
M  END
>  <REMARK>
  0 active torsions:
  status: ('A' for Active; 'I' for Inactive)
       I    between atoms: C_9  and  N_10 

>  <TORSDO>
F 0

$$$$
C:\Users\siddh\.mgltools\PyRx\Ligands\ZINC000100794811_uff_E=695.82.pdbqt
 OpenBabel04182118313D

 18 18  0  0  1  0  0  0  0  0999 V2000
   -0.6100    1.3870    0.0610 C   0  0  0  0  0  1  0  0  0  0  0  0
   -1.1640    0.0390    0.1490 N   0  0  0  0  0  0  0  0  0  0  0  0
   -1.0310   -0.6960    1.3090 C   0  0  0  0  0  0  0  0  0  0  0  0
   -1.4830   -1.8260    1.3570 O   0  0  0  0  0  0  0  0  0  0  0  0
   -1.8490   -0.5370   -1.0220 C   0  0  2  0  0  3  0  0  0  0  0  0
   -0.9110   -0.6720   -2.2420 C   0  0  0  0  0  2  0  0  0  0  0  0
   -2.1060   -0.7910   -3.5740 S   0  0  0  0  0  0  0  0  0  0  0  0
   -3.6350   -0.3860   -2.7310 C   0  0  0  0  0  2  0  0  0  0  0  0
   -2.1290   -2.1700   -4.2490 O   0  0  0  0  0  0  0  0  0  0  0  0
   -1.7970    0.2030   -4.7040 O   0  0  0  0  0  0  0  0  0  0  0  0
   -3.0900    0.2880   -1.4640 C   0  0  0  0  0  2  0  0  0  0  0  0
   -0.3720   -0.1160    2.5330 C   0  0  0  0  0  2  0  0  0  0  0  0
    0.0220   -0.7690    3.6530 C   0  0  0  0  0  3  0  0  0  0  0  0
    0.0050   -2.2300    3.9360 C   0  0  0  0  0  0  0  0  0  0  0  0
   -0.2270   -3.1500    2.9840 O   0  0  0  0  0  0  0  0  0  0  0  0
   -0.2280   -4.0610    3.2040 H   0  0  0  0  0  0  0  0  0  0  0  0
    0.3260   -2.6500    5.1740 O   0  0  0  0  0  0  0  0  0  0  0  0
    0.4920   -2.0250    5.8520 H   0  0  0  0  0  0  0  0  0  0  0  0
  1  2  1  0  0  0  0
  2  3  1  0  0  0  0
  3  4  2  0  0  0  0
  3 12  1  0  0  0  0
  5  2  1  1  0  0  0
  6  5  1  0  0  0  0
  7  8  1  0  0  0  0
  7  6  1  0  0  0  0
  8 11  1  0  0  0  0
  9  7  2  0  0  0  0
 10  7  2  0  0  0  0
 11  5  1  0  0  0  0
 12 13  1  0  0  0  0
 13 14  2  0  0  0  0
 14 17  1  0  0  0  0
 15 16  1  0  0  0  0
 15 14  1  0  0  0  0
 17 18  1  0  0  0  0
M  END
>  <REMARK>
  5 active torsions:
  status: ('A' for Active; 'I' for Inactive)
       I    between atoms: N_2  and  C_3 
    1  A    between atoms: N_2  and  C_10 
    2  A    between atoms: C_3  and  C_5 
    3  A    between atoms: C_6  and  C_7 
    4  A    between atoms: C_7  and  O_8 
    5  A    between atoms: C_7  and  O_9 

>  <TORSDO>
F 5

$$$$
C:\Users\siddh\.mgltools\PyRx\Ligands\ZINC000100740888_uff_E=169.66.pdbqt
 OpenBabel04182118313D

 16 16  0  0  1  0  0  0  0  0999 V2000
   -1.2260   -2.1710   -0.0560 C   0  0  2  0  0  3  0  0  0  0  0  0
   -2.7550   -2.3890    0.0690 C   0  0  0  0  0  2  0  0  0  0  0  0
   -3.0470   -3.8420    0.3600 C   0  0  0  0  0  2  0  0  0  0  0  0
   -2.4230   -4.1530    1.6850 C   0  0  0  0  0  0  0  0  0  0  0  0
   -3.1040   -4.6810    2.5480 O   0  0  0  0  0  0  0  0  0  0  0  0
   -1.0110   -3.7200    1.9550 C   0  0  0  0  0  0  0  0  0  0  0  0
   -0.4480   -2.7980    1.1080 C   0  0  0  0  0  0  0  0  0  0  0  0
   -0.9310   -0.6850   -0.1880 C   0  0  0  0  0  0  0  0  0  0  0  0
   -1.8390    0.1340   -0.1360 O   0  0  0  0  0  0  0  0  0  0  0  0
    0.3470   -0.2690   -0.3900 O   0  0  0  0  0  0  0  0  0  0  0  0
    0.6780    1.0640   -0.5220 C   0  0  0  0  0  1  0  0  0  0  0  0
    0.8440   -2.4340    1.2680 O   0  0  0  0  0  0  0  0  0  0  0  0
    1.2290   -1.8050    0.6900 H   0  0  0  0  0  0  0  0  0  0  0  0
   -0.2290   -4.2600    3.1360 C   0  0  0  0  0  0  0  0  0  0  0  0
   -0.6810   -5.4260    3.9780 C   0  0  0  0  0  1  0  0  0  0  0  0
    0.8330   -3.7380    3.4440 O   0  0  0  0  0  0  0  0  0  0  0  0
  1  8  1  1  0  0  0
  1  2  1  0  0  0  0
  1  7  1  0  0  0  0
  2  3  1  0  0  0  0
  3  4  1  0  0  0  0
  4  6  1  0  0  0  0
  4  5  2  0  0  0  0
  6 14  1  0  0  0  0
  7 12  1  0  0  0  0
  7  6  2  0  0  0  0
  8  9  2  0  0  0  0
 10  8  1  0  0  0  0
 11 10  1  0  0  0  0
 13 12  1  0  0  0  0
 14 16  2  0  0  0  0
 14 15  1  0  0  0  0
M  END
>  <REMARK>
  4 active torsions:
  status: ('A' for Active; 'I' for Inactive)
    1  A    between atoms: O_2  and  C_3 
    2  A    between atoms: C_3  and  C_5 
    3  A    between atoms: C_10  and  C_11 
    4  A    between atoms: C_14  and  O_15 

>  <TORSDO>
F 4

$$$$
C:\Users\siddh\.mgltools\PyRx\Ligands\ZINC000100740885_uff_E=169.34.pdbqt
 OpenBabel04182118313D

 16 16  0  0  1  0  0  0  0  0999 V2000
   -1.5260   -1.8790   -0.2620 C   0  0  1  0  0  3  0  0  0  0  0  0
   -3.0360   -2.1840   -0.4300 C   0  0  0  0  0  2  0  0  0  0  0  0
   -3.2480   -3.6720   -0.5800 C   0  0  0  0  0  2  0  0  0  0  0  0
   -2.5460   -4.0880   -1.8350 C   0  0  0  0  0  0  0  0  0  0  0  0
   -3.1580   -4.7360   -2.6680 O   0  0  0  0  0  0  0  0  0  0  0  0
   -1.1440   -3.6140   -2.0870 C   0  0  0  0  0  0  0  0  0  0  0  0
   -0.6650   -2.5820   -1.3200 C   0  0  0  0  0  0  0  0  0  0  0  0
   -1.3040   -0.3750   -0.2720 C   0  0  0  0  0  0  0  0  0  0  0  0
   -2.2440    0.3890   -0.4470 O   0  0  0  0  0  0  0  0  0  0  0  0
   -0.0570    0.1210   -0.0590 O   0  0  0  0  0  0  0  0  0  0  0  0
    0.2070    1.4750   -0.0530 C   0  0  0  0  0  1  0  0  0  0  0  0
    0.6150   -2.1730   -1.4620 O   0  0  0  0  0  0  0  0  0  0  0  0
    0.9420   -1.4680   -0.9380 H   0  0  0  0  0  0  0  0  0  0  0  0
   -0.2810   -4.2380   -3.1650 C   0  0  0  0  0  0  0  0  0  0  0  0
   -0.6280   -5.5210   -3.8760 C   0  0  0  0  0  1  0  0  0  0  0  0
    0.7650   -3.6930   -3.4890 O   0  0  0  0  0  0  0  0  0  0  0  0
  1  8  1  6  0  0  0
  2  1  1  0  0  0  0
  3  2  1  0  0  0  0
  4  3  1  0  0  0  0
  5  4  2  0  0  0  0
  6  4  1  0  0  0  0
  6  7  2  0  0  0  0
  7  1  1  0  0  0  0
  8 10  1  0  0  0  0
  9  8  2  0  0  0  0
 10 11  1  0  0  0  0
 12  7  1  0  0  0  0
 12 13  1  0  0  0  0
 14  6  1  0  0  0  0
 15 14  1  0  0  0  0
 16 14  2  0  0  0  0
M  END
>  <REMARK>
  4 active torsions:
  status: ('A' for Active; 'I' for Inactive)
    1  A    between atoms: O_2  and  C_3 
    2  A    between atoms: C_3  and  C_5 
    3  A    between atoms: C_10  and  C_11 
    4  A    between atoms: C_14  and  O_15 

>  <TORSDO>
F 4

$$$$
C:\Users\siddh\.mgltools\PyRx\Ligands\ZINC000100486561_uff_E=486.75.pdbqt
 OpenBabel04182118313D

 21 23  0  0  1  0  0  0  0  0999 V2000
    0.0180    1.4830    0.0110 C   0  0  0  0  0  1  0  0  0  0  0  0
    0.0370   -0.0120    0.0010 C   0  0  0  0  0  0  0  0  0  0  0  0
   -1.1860   -0.7280    0.0080 C   0  0  0  0  0  3  0  0  0  0  0  0
   -1.1450   -2.1270   -0.0030 C   0  0  0  0  0  0  0  0  0  0  0  0
   -2.1690   -2.7870    0.0010 O   0  0  0  0  0  0  0  0  0  0  0  0
    0.0770   -2.7260   -0.0200 N   0  0  0  0  0  0  0  0  0  0  0  0
    0.3590   -4.0110   -0.0370 N   0  0  0  0  0  0  0  0  0  0  0  0
   -0.3050   -4.7860   -0.0330 H   0  0  0  0  0  0  0  0  0  0  0  0
    1.7110   -4.0950   -0.0600 C   0  0  2  0  0  3  0  0  0  0  0  0
    2.2870   -2.8590   -0.0540 N   0  0  0  0  0  0  0  0  0  0  0  0
    1.2170   -2.0430   -0.0280 C   0  0  1  0  0  3  0  0  0  0  0  0
    1.2330   -0.6850   -0.0170 N   0  0  0  0  0  0  0  0  0  0  0  0
    2.1170   -0.1760   -0.0210 H   0  0  0  0  0  0  0  0  0  0  0  0
    3.2430   -2.6240   -0.0660 H   0  0  0  0  0  0  0  0  0  0  0  0
    2.4800   -5.3710   -0.0930 C   0  0  0  0  0  0  0  0  0  0  0  0
    3.7010   -5.3080   -0.1330 O   0  0  0  0  0  0  0  0  0  0  0  0
    1.8670   -6.6010   -0.0590 N   0  0  0  0  0  0  0  0  0  0  0  0
    2.6050   -7.8440   -0.0440 C   0  0  0  0  0  2  0  0  0  0  0  0
    0.4370   -6.8020    0.0380 C   0  0  0  0  0  2  0  0  0  0  0  0
    1.5830   -8.8180    0.5410 C   0  0  0  0  0  2  0  0  0  0  0  0
    0.2820   -8.3170   -0.0610 C   0  0  0  0  0  2  0  0  0  0  0  0
  2  3  2  0  0  0  0
  2  1  1  0  0  0  0
  4  5  2  0  0  0  0
  4  3  1  0  0  0  0
  6  4  1  0  0  0  0
  7  8  1  0  0  0  0
  7  6  1  0  0  0  0
  9 15  1  6  0  0  0
  9 10  1  0  0  0  0
  9  7  1  0  0  0  0
 11 10  1  6  0  0  0
 11  6  1  0  0  0  0
 11 12  1  0  0  0  0
 12  2  1  0  0  0  0
 13 12  1  0  0  0  0
 14 10  1  0  0  0  0
 15 17  1  0  0  0  0
 16 15  2  0  0  0  0
 17 18  1  0  0  0  0
 17 19  1  0  0  0  0
 18 20  1  0  0  0  0
 21 19  1  0  0  0  0
 21 20  1  0  0  0  0
M  END
>  <REMARK>
  1 active torsions:
  status: ('A' for Active; 'I' for Inactive)
    1  A    between atoms: C_9  and  C_10 
       I    between atoms: C_10  and  N_12 

>  <TORSDO>
F 1

$$$$
C:\Users\siddh\.mgltools\PyRx\Ligands\ZINC000100431401_uff_E=297.51.pdbqt
 OpenBabel04182118313D

 18 19  0  0  1  0  0  0  0  0999 V2000
    0.0000    1.4800    0.0100 C   0  0  0  0  0  1  0  0  0  0  0  0
   -0.0130   -0.0110    0.0010 C   0  0  0  0  0  0  0  0  0  0  0  0
   -1.1500   -0.7980    0.0030 C   0  0  0  0  0  3  0  0  0  0  0  0
   -0.6750   -2.0800   -0.0070 C   0  0  0  0  0  0  0  0  0  0  0  0
   -1.3570   -3.0900   -0.0080 O   0  0  0  0  0  0  0  0  0  0  0  0
    0.6820   -2.0600   -0.0140 N   0  0  0  0  0  0  0  0  0  0  0  0
    1.5500   -3.2010   -0.0250 C   0  0  2  0  0  3  0  0  0  0  0  0
    1.0120   -4.4490   -0.0330 N   0  0  0  0  0  0  0  0  0  0  0  0
   -0.0020   -4.5530   -0.0320 H   0  0  0  0  0  0  0  0  0  0  0  0
    1.7890   -5.5580   -0.0430 C   0  0  0  0  0  0  0  0  0  0  0  0
    1.1470   -6.9040   -0.0530 C   0  0  0  0  0  1  0  0  0  0  0  0
    3.1770   -5.4280   -0.0440 C   0  0  0  0  0  3  0  0  0  0  0  0
    3.7280   -4.1450   -0.0350 C   0  0  0  0  0  0  0  0  0  0  0  0
    4.9380   -4.0020   -0.0360 O   0  0  0  0  0  0  0  0  0  0  0  0
    2.9040   -3.0470   -0.0260 N   0  0  0  0  0  0  0  0  0  0  0  0
    1.0890   -0.7970   -0.0090 N   0  0  0  0  0  0  0  0  0  0  0  0
    3.3220   -2.0890   -0.0200 H   0  0  0  0  0  0  0  0  0  0  0  0
    2.0230   -0.4880   -0.0130 H   0  0  0  0  0  0  0  0  0  0  0  0
  2  3  2  0  0  0  0
  2  1  1  0  0  0  0
  4  3  1  0  0  0  0
  5  4  2  0  0  0  0
  6 16  1  0  0  0  0
  6  4  1  0  0  0  0
  7  6  1  1  0  0  0
  8  9  1  0  0  0  0
  8  7  1  0  0  0  0
 10  8  1  0  0  0  0
 11 10  1  0  0  0  0
 12 10  2  0  0  0  0
 12 13  1  0  0  0  0
 13 15  1  0  0  0  0
 14 13  2  0  0  0  0
 15  7  1  0  0  0  0
 15 17  1  0  0  0  0
 16  2  1  0  0  0  0
 18 16  1  0  0  0  0
M  END
>  <REMARK>
  0 active torsions:
  status: ('A' for Active; 'I' for Inactive)
       I    between atoms: N_6  and  C_7 

>  <TORSDO>
F 0

$$$$
C:\Users\siddh\.mgltools\PyRx\Ligands\ZINC000100392864_uff_E=332.68.pdbqt
 OpenBabel04182118313D

 18 19  0  0  1  0  0  0  0  0999 V2000
   -1.2760   -2.1460    0.0030 C   0  0  1  0  0  3  0  0  0  0  0  0
   -0.1900   -2.9640   -0.0070 N   0  0  0  0  0  0  0  0  0  0  0  0
    0.7920   -2.6880   -0.0110 H   0  0  0  0  0  0  0  0  0  0  0  0
   -0.6770   -4.1950   -0.0110 N   0  0  0  0  0  0  0  0  0  0  0  0
   -2.0070   -4.1240   -0.0030 C   0  0  2  0  0  3  0  0  0  0  0  0
   -2.7880   -5.2340   -0.0050 N   0  0  0  0  0  0  0  0  0  0  0  0
   -3.8040   -5.1520    0.0010 H   0  0  0  0  0  0  0  0  0  0  0  0
   -2.1900   -6.4660   -0.0150 C   0  0  0  0  0  0  0  0  0  0  0  0
   -3.0310   -7.7060   -0.0180 C   0  0  0  0  0  1  0  0  0  0  0  0
   -0.7780   -6.5690   -0.0230 C   0  0  0  0  0  3  0  0  0  0  0  0
   -0.0130   -5.3890   -0.0210 C   0  0  0  0  0  0  0  0  0  0  0  0
    1.2050   -5.4320   -0.0270 O   0  0  0  0  0  0  0  0  0  0  0  0
   -2.4380   -2.8530    0.0060 N   0  0  0  0  0  0  0  0  0  0  0  0
   -3.3630   -2.5170    0.0140 H   0  0  0  0  0  0  0  0  0  0  0  0
   -1.2370   -0.6680    0.0110 C   0  0  0  0  0  0  0  0  0  0  0  0
   -2.2950   -0.0530    0.0220 O   0  0  0  0  0  0  0  0  0  0  0  0
   -0.0560    0.0090    0.0040 O   0  0  0  0  0  0  0  0  0  0  0  0
   -0.0050    1.3940    0.0100 C   0  0  0  0  0  1  0  0  0  0  0  0
  1 13  1  0  0  0  0
  1 15  1  1  0  0  0
  2  1  1  0  0  0  0
  3  2  1  0  0  0  0
  4  2  1  0  0  0  0
  5  4  1  6  0  0  0
  5 13  1  0  0  0  0
  6  5  1  0  0  0  0
  6  7  1  0  0  0  0
  8  6  1  0  0  0  0
  9  8  1  0  0  0  0
 10 11  1  0  0  0  0
 10  8  2  0  0  0  0
 11  4  1  0  0  0  0
 12 11  2  0  0  0  0
 13 14  1  0  0  0  0
 15 16  2  0  0  0  0
 17 18  1  0  0  0  0
 17 15  1  0  0  0  0
M  END
>  <REMARK>
  2 active torsions:
  status: ('A' for Active; 'I' for Inactive)
    1  A    between atoms: O_2  and  C_3 
    2  A    between atoms: C_3  and  C_5 

>  <TORSDO>
F 2

$$$$
C:\Users\siddh\.mgltools\PyRx\Ligands\ZINC000100338482_uff_E=343.42.pdbqt
 OpenBabel04182118313D

 18 19  0  0  1  0  0  0  0  0999 V2000
   -2.8810   -2.4010    0.0190 C   0  0  0  0  0  0  0  0  0  0  0  0
   -3.0650   -3.8100    0.0160 C   0  0  0  0  0  3  0  0  0  0  0  0
   -4.3160   -4.3520    0.0240 N   0  0  0  0  0  0  0  0  0  0  0  0
   -4.4420   -5.3640    0.0220 H   0  0  0  0  0  0  0  0  0  0  0  0
   -5.3860   -3.5260    0.0340 C   0  0  1  0  0  3  0  0  0  0  0  0
   -6.6730   -3.9040    0.0420 N   0  0  0  0  0  0  0  0  0  0  0  0
   -7.0620   -4.8470    0.0420 H   0  0  0  0  0  0  0  0  0  0  0  0
   -7.3280   -2.7140    0.0500 C   0  0  0  0  0  2  0  0  0  0  0  0
   -6.4620   -1.6680    0.0480 N   0  0  0  0  0  0  0  0  0  0  0  0
   -5.2550   -2.2030    0.0380 N   0  0  0  0  0  0  0  0  0  0  0  0
   -4.0370   -1.5810    0.0310 C   0  0  0  0  0  0  0  0  0  0  0  0
   -3.9610   -0.3640    0.0350 O   0  0  0  0  0  0  0  0  0  0  0  0
   -6.6880   -0.7100    0.0520 H   0  0  0  0  0  0  0  0  0  0  0  0
   -1.5010   -1.8500    0.0080 C   0  0  0  0  0  0  0  0  0  0  0  0
   -0.5490   -2.6210   -0.0060 O   0  0  0  0  0  0  0  0  0  0  0  0
   -1.2820   -0.5090    0.0120 O   0  0  0  0  0  0  0  0  0  0  0  0
   -0.0020    0.0090    0.0020 C   0  0  0  0  0  2  0  0  0  0  0  0
   -0.0340    1.5260    0.0110 C   0  0  0  0  0  1  0  0  0  0  0  0
  1 11  1  0  0  0  0
  2  1  2  0  0  0  0
  2  3  1  0  0  0  0
  4  3  1  0  0  0  0
  5  3  1  1  0  0  0
  5 10  1  0  0  0  0
  5  6  1  0  0  0  0
  6  7  1  0  0  0  0
  6  8  1  0  0  0  0
  9  8  1  0  0  0  0
  9 13  1  0  0  0  0
 10  9  1  0  0  0  0
 11 12  2  0  0  0  0
 11 10  1  0  0  0  0
 14 16  1  0  0  0  0
 14  1  1  0  0  0  0
 15 14  2  0  0  0  0
 17 18  1  0  0  0  0
 17 16  1  0  0  0  0
M  END
>  <REMARK>
  3 active torsions:
  status: ('A' for Active; 'I' for Inactive)
    1  A    between atoms: C_2  and  O_3 
    2  A    between atoms: O_3  and  C_4 
    3  A    between atoms: C_4  and  C_6 

>  <TORSDO>
F 3

$$$$
C:\Users\siddh\.mgltools\PyRx\Ligands\ZINC000100252828_uff_E=1459.84.pdbqt
 OpenBabel04182118313D

 19 20  0  0  0  0  0  0  0  0999 V2000
   -1.3960   -0.4950    0.0130 C   0  0  0  0  0  0  0  0  0  0  0  0
   -2.0360   -0.7130   -1.2160 C   0  0  0  0  0  3  0  0  0  0  0  0
   -3.4840   -1.1320   -1.3630 C   0  0  0  0  0  0  0  0  0  0  0  0
   -4.2260   -1.2520   -0.4070 O   0  0  0  0  0  0  0  0  0  0  0  0
   -4.0130   -1.3180   -2.5950 N   0  0  0  0  0  0  0  0  0  0  0  0
   -3.3080   -1.1540   -3.7380 C   0  0  0  0  0  0  0  0  0  0  0  0
   -3.8590   -1.3450   -4.8110 O   0  0  0  0  0  0  0  0  0  0  0  0
   -2.0030   -0.7840   -3.7130 N   0  0  0  0  0  0  0  0  0  0  0  0
   -1.3330   -0.5550   -2.5540 C   0  0  0  0  0  0  0  0  0  0  0  0
   -0.1500   -0.2700   -2.6310 O   0  0  0  0  0  0  0  0  0  0  0  0
   -1.4980   -0.6820   -4.6080 H   0  0  0  0  0  0  0  0  0  0  0  0
   -4.9570   -1.5870   -2.6630 H   0  0  0  0  0  0  0  0  0  0  0  0
    0.0370    0.0330    0.0580 C   0  0  0  0  0  2  0  0  0  0  0  0
    1.0350   -1.1210    0.0670 C   0  0  0  0  0  1  0  0  0  0  0  0
   -2.0260   -0.8220    1.2780 N   0  0  0  0  0  4  0  0  0  0  0  0
   -2.9190   -1.3140    1.3020 H   0  0  0  0  0  0  0  0  0  0  0  0
   -1.3870   -0.6260    2.5780 C   0  0  0  0  0  3  0  0  0  0  0  0
   -2.0500   -1.2520    3.7980 C   0  0  0  0  0  2  0  0  0  0  0  0
   -2.3230    0.2030    3.4390 C   0  0  0  0  0  2  0  0  0  0  0  0
  1 13  1  0  0  0  0
  1 15  2  0  0  0  0
  2  1  1  0  0  0  0
  3  2  1  0  0  0  0
  3  4  2  0  0  0  0
  5  3  1  0  0  0  0
  6  8  1  0  0  0  0
  6  5  1  0  0  0  0
  7  6  2  0  0  0  0
  8  9  1  0  0  0  0
  9  2  1  0  0  0  0
 10  9  2  0  0  0  0
 11  8  1  0  0  0  0
 12  5  1  0  0  0  0
 13 14  1  0  0  0  0
 15 16  1  0  0  0  0
 15 17  1  0  0  0  0
 17 19  1  0  0  0  0
 17 18  1  0  0  0  0
 19 18  1  0  0  0  0
M  END
>  <REMARK>
  3 active torsions:
  status: ('A' for Active; 'I' for Inactive)
    1  A    between atoms: C_2  and  C_3 
    2  A    between atoms: C_3  and  N_4 
    3  A    between atoms: N_4  and  C_5 

>  <TORSDO>
F 3

$$$$
C:\Users\siddh\.mgltools\PyRx\Ligands\ZINC000100202383_uff_E=384.86.pdbqt
 OpenBabel04182118313D

 19 20  0  0  1  0  0  0  0  0999 V2000
    1.3640   -2.5470   -2.3930 C   0  0  0  0  0  0  0  0  0  0  0  0
    2.7480   -2.8510   -2.3610 C   0  0  0  0  0  3  0  0  0  0  0  0
    3.3850   -3.2180   -3.5550 C   0  0  0  0  0  0  0  0  0  0  0  0
    4.5760   -3.4720   -3.5800 O   0  0  0  0  0  0  0  0  0  0  0  0
    2.6300   -3.2720   -4.6890 N   0  0  0  0  0  0  0  0  0  0  0  0
    2.9980   -3.5930   -5.9150 N   0  0  0  0  0  0  0  0  0  0  0  0
    3.9300   -3.8630   -6.2300 H   0  0  0  0  0  0  0  0  0  0  0  0
    1.8750   -3.4880   -6.6690 C   0  0  1  0  0  3  0  0  0  0  0  0
    1.8210   -3.7770   -8.1330 C   0  0  0  0  0  1  0  0  0  0  0  0
    0.8010   -3.1040   -5.9290 N   0  0  0  0  0  0  0  0  0  0  0  0
    1.3310   -2.9820   -4.7000 C   0  0  2  0  0  3  0  0  0  0  0  0
    0.6730   -2.6070   -3.5750 N   0  0  0  0  0  0  0  0  0  0  0  0
   -0.3190   -2.3740   -3.6080 H   0  0  0  0  0  0  0  0  0  0  0  0
   -0.1270   -2.9530   -6.2190 H   0  0  0  0  0  0  0  0  0  0  0  0
    0.6650   -2.0750   -1.1480 C   0  0  0  0  0  2  0  0  0  0  0  0
    0.6020   -0.5690   -1.1130 C   0  0  0  0  0  0  0  0  0  0  0  0
    1.1000    0.0900   -2.0190 O   0  0  0  0  0  0  0  0  0  0  0  0
    0.0170    0.0560   -0.0600 O   0  0  0  0  0  0  0  0  0  0  0  0
   -0.0370    1.4320    0.0360 C   0  0  0  0  0  1  0  0  0  0  0  0
  1  2  2  0  0  0  0
  1 15  1  0  0  0  0
  3  2  1  0  0  0  0
  4  3  2  0  0  0  0
  5  3  1  0  0  0  0
  6  5  1  0  0  0  0
  7  6  1  0  0  0  0
  8  9  1  1  0  0  0
  8 10  1  0  0  0  0
  8  6  1  0  0  0  0
 11 10  1  6  0  0  0
 11  5  1  0  0  0  0
 11 12  1  0  0  0  0
 12  1  1  0  0  0  0
 13 12  1  0  0  0  0
 14 10  1  0  0  0  0
 15 16  1  0  0  0  0
 16 18  1  0  0  0  0
 17 16  2  0  0  0  0
 18 19  1  0  0  0  0
M  END
>  <REMARK>
  3 active torsions:
  status: ('A' for Active; 'I' for Inactive)
    1  A    between atoms: O_2  and  C_3 
    2  A    between atoms: C_3  and  C_5 
    3  A    between atoms: C_5  and  C_6 

>  <TORSDO>
F 3

$$$$
C:\Users\siddh\.mgltools\PyRx\Ligands\ZINC000100177130_uff_E=365.60.pdbqt
 OpenBabel04182118313D

 19 20  0  0  1  0  0  0  0  0999 V2000
   -1.2430   -0.6670    0.0130 C   0  0  0  0  0  0  0  0  0  0  0  0
   -1.5030   -2.3170    0.0130 S   0  0  0  0  0  0  0  0  0  0  0  0
   -3.1600   -2.2780    0.0240 C   0  0  1  0  0  3  0  0  0  0  0  0
   -4.0540   -3.3420    0.0290 C   0  0  0  0  0  3  0  0  0  0  0  0
   -5.4240   -3.0310    0.0340 C   0  0  0  0  0  0  0  0  0  0  0  0
   -6.4590   -4.1090    0.0440 C   0  0  0  0  0  1  0  0  0  0  0  0
   -5.8230   -1.7250    0.0390 N   0  0  0  0  0  0  0  0  0  0  0  0
   -6.8200   -1.5100    0.0440 H   0  0  0  0  0  0  0  0  0  0  0  0
   -4.9230   -0.7020    0.0360 C   0  0  1  0  0  3  0  0  0  0  0  0
   -5.3350    0.5130    0.0420 N   0  0  0  0  0  0  0  0  0  0  0  0
   -4.6550    1.2730    0.0400 H   0  0  0  0  0  0  0  0  0  0  0  0
   -3.5870   -0.9880    0.0280 N   0  0  0  0  0  0  0  0  0  0  0  0
   -2.5290   -0.0760    0.0230 C   0  0  0  0  0  0  0  0  0  0  0  0
   -2.7120    1.1300    0.0260 O   0  0  0  0  0  0  0  0  0  0  0  0
   -6.3410    0.7350    0.0490 H   0  0  0  0  0  0  0  0  0  0  0  0
   -0.0400   -0.0560    0.0060 C   0  0  0  0  0  0  0  0  0  0  0  0
    0.0870    1.4440    0.0080 C   0  0  0  0  0  1  0  0  0  0  0  0
    1.0840   -0.8010   -0.0040 O   0  0  0  0  0  0  0  0  0  0  0  0
    1.9230   -0.3820   -0.0090 H   0  0  0  0  0  0  0  0  0  0  0  0
  1  2  1  0  0  0  0
  1 13  1  0  0  0  0
  2  3  1  0  0  0  0
  3 12  1  0  0  0  0
  3  4  1  1  0  0  0
  4  5  2  0  0  0  0
  5  7  1  0  0  0  0
  5  6  1  0  0  0  0
  7  8  1  0  0  0  0
  9  7  1  0  0  0  0
  9 10  1  1  0  0  0
 10 15  1  0  0  0  0
 11 10  1  0  0  0  0
 12  9  1  0  0  0  0
 13 14  2  0  0  0  0
 13 12  1  0  0  0  0
 16 17  1  0  0  0  0
 16  1  2  0  0  0  0
 18 16  1  0  0  0  0
 19 18  1  0  0  0  0
M  END
>  <REMARK>
  2 active torsions:
  status: ('A' for Active; 'I' for Inactive)
    1  A    between atoms: C_2  and  O_3 
    2  A    between atoms: C_2  and  C_4 
       I    between atoms: C_12  and  N_13 

>  <TORSDO>
F 2

$$$$
C:\Users\siddh\.mgltools\PyRx\Ligands\ZINC000100116767_uff_E=363.12.pdbqt
 OpenBabel04182118313D

 20 21  0  0  1  0  0  0  0  0999 V2000
    1.5080   -3.9630    2.4400 C   0  0  1  0  0  3  0  0  0  0  0  0
    0.9500   -4.7180    1.4640 N   0  0  0  0  0  0  0  0  0  0  0  0
    0.4600   -4.3830    0.6350 H   0  0  0  0  0  0  0  0  0  0  0  0
    1.1680   -5.9670    1.8000 N   0  0  0  0  0  0  0  0  0  0  0  0
    1.8390   -5.9860    2.9460 C   0  0  2  0  0  3  0  0  0  0  0  0
    2.2010   -7.1550    3.5330 N   0  0  0  0  0  0  0  0  0  0  0  0
    2.7160   -7.1590    4.4130 H   0  0  0  0  0  0  0  0  0  0  0  0
    1.8590   -8.3340    2.9150 C   0  0  0  0  0  0  0  0  0  0  0  0
    2.2390   -9.6400    3.5290 C   0  0  0  0  0  1  0  0  0  0  0  0
    1.1430   -8.3220    1.6910 C   0  0  0  0  0  3  0  0  0  0  0  0
    0.7960   -7.0910    1.1320 C   0  0  0  0  0  0  0  0  0  0  0  0
    0.1810   -7.0240    0.0820 O   0  0  0  0  0  0  0  0  0  0  0  0
    2.0850   -4.7400    3.4020 N   0  0  0  0  0  0  0  0  0  0  0  0
    2.5580   -4.4630    4.2200 H   0  0  0  0  0  0  0  0  0  0  0  0
    1.4880   -2.4460    2.4500 C   0  0  0  0  0  2  0  0  0  0  0  0
    0.7700   -1.8400    1.2490 C   0  0  0  0  0  0  0  0  0  0  0  0
    0.2770   -2.5610    0.3920 O   0  0  0  0  0  0  0  0  0  0  0  0
    0.6660   -0.4920    1.1130 O   0  0  0  0  0  0  0  0  0  0  0  0
    0.0110    0.0500    0.0190 C   0  0  0  0  0  2  0  0  0  0  0  0
    0.0110    1.5650    0.0610 C   0  0  0  0  0  1  0  0  0  0  0  0
  1 15  1  6  0  0  0
  1 13  1  0  0  0  0
  2  4  1  0  0  0  0
  2  1  1  0  0  0  0
  3  2  1  0  0  0  0
  5  4  1  1  0  0  0
  5 13  1  0  0  0  0
  5  6  1  0  0  0  0
  6  7  1  0  0  0  0
  8  9  1  0  0  0  0
  8  6  1  0  0  0  0
 10  8  2  0  0  0  0
 11 10  1  0  0  0  0
 11  4  1  0  0  0  0
 12 11  2  0  0  0  0
 13 14  1  0  0  0  0
 16 15  1  0  0  0  0
 17 16  2  0  0  0  0
 18 16  1  0  0  0  0
 19 20  1  0  0  0  0
 19 18  1  0  0  0  0
M  END
>  <REMARK>
  4 active torsions:
  status: ('A' for Active; 'I' for Inactive)
    1  A    between atoms: C_2  and  O_3 
    2  A    between atoms: O_3  and  C_4 
    3  A    between atoms: C_4  and  C_6 
    4  A    between atoms: C_6  and  C_7 

>  <TORSDO>
F 4

$$$$
C:\Users\siddh\.mgltools\PyRx\Ligands\ZINC000100116292_uff_E=392.73.pdbqt
 OpenBabel04182118313D

 21 22  0  0  1  0  0  0  0  0999 V2000
   -1.1470   -2.0860    0.0060 C   0  0  0  0  0  0  0  0  0  0  0  0
   -1.6040   -2.8580    1.1070 C   0  0  0  0  0  3  0  0  0  0  0  0
   -1.4600   -4.2550    1.0620 C   0  0  0  0  0  0  0  0  0  0  0  0
   -1.8300   -4.9560    1.9880 O   0  0  0  0  0  0  0  0  0  0  0  0
   -0.8910   -4.8020   -0.0510 N   0  0  0  0  0  0  0  0  0  0  0  0
   -0.6500   -6.0720   -0.3300 N   0  0  0  0  0  0  0  0  0  0  0  0
   -0.8530   -6.8840    0.2540 H   0  0  0  0  0  0  0  0  0  0  0  0
   -0.0760   -6.0640   -1.5590 C   0  0  2  0  0  3  0  0  0  0  0  0
    0.3490   -7.2370   -2.2480 N   0  0  0  0  0  0  0  0  0  0  0  0
    0.9200   -7.1860   -3.4890 C   0  0  0  0  0  0  0  0  0  0  0  0
    1.3560   -8.4360   -4.1870 C   0  0  0  0  0  1  0  0  0  0  0  0
    1.0870   -6.1170   -4.0580 O   0  0  0  0  0  0  0  0  0  0  0  0
    0.0470   -4.8040   -2.0540 N   0  0  0  0  0  0  0  0  0  0  0  0
   -0.4750   -4.0580   -1.0740 C   0  0  2  0  0  3  0  0  0  0  0  0
   -0.5840   -2.7070   -1.0750 N   0  0  0  0  0  0  0  0  0  0  0  0
   -0.2520   -2.1620   -1.8700 H   0  0  0  0  0  0  0  0  0  0  0  0
    0.2180   -8.1520   -1.7890 H   0  0  0  0  0  0  0  0  0  0  0  0
    0.4250   -4.5140   -2.9160 H   0  0  0  0  0  0  0  0  0  0  0  0
   -1.2660   -0.5870    0.0140 C   0  0  0  0  0  2  0  0  0  0  0  0
    0.0310   -0.0300   -0.0220 O   0  0  0  0  0  0  0  0  0  0  0  0
   -0.0510    1.3790    0.0040 C   0  0  0  0  0  1  0  0  0  0  0  0
  1 19  1  0  0  0  0
  1  2  2  0  0  0  0
  3  2  1  0  0  0  0
  3  4  2  0  0  0  0
  5  3  1  0  0  0  0
  6  5  1  0  0  0  0
  6  7  1  0  0  0  0
  8  9  1  1  0  0  0
  8  6  1  0  0  0  0
  9 17  1  0  0  0  0
 10  9  1  0  0  0  0
 11 10  1  0  0  0  0
 12 10  2  0  0  0  0
 13  8  1  0  0  0  0
 14 13  1  1  0  0  0
 14  5  1  0  0  0  0
 15 14  1  0  0  0  0
 15  1  1  0  0  0  0
 16 15  1  0  0  0  0
 18 13  1  0  0  0  0
 20 21  1  0  0  0  0
 20 19  1  0  0  0  0
M  END
>  <REMARK>
  2 active torsions:
  status: ('A' for Active; 'I' for Inactive)
    1  A    between atoms: O_2  and  C_3 
    2  A    between atoms: C_3  and  C_4 
       I    between atoms: C_11  and  N_12 
       I    between atoms: N_12  and  C_13 

>  <TORSDO>
F 2

$$$$
C:\Users\siddh\.mgltools\PyRx\Ligands\ZINC000100020642_uff_E=122.95.pdbqt
 OpenBabel04182118313D

 20 19  0  0  0  0  0  0  0  0999 V2000
   -2.8040   -2.4580    0.2140 C   0  0  0  0  0  0  0  0  0  0  0  0
   -2.9400   -3.7790   -0.1290 C   0  0  0  0  0  3  0  0  0  0  0  0
   -1.5130   -1.8760    0.7420 C   0  0  0  0  0  0  0  0  0  0  0  0
   -0.6090   -2.6090    1.1110 O   0  0  0  0  0  0  0  0  0  0  0  0
   -1.3520   -0.5320    0.8710 O   0  0  0  0  0  0  0  0  0  0  0  0
   -0.1500    0.0080    1.3000 C   0  0  0  0  0  2  0  0  0  0  0  0
   -0.2260    1.5200    1.3700 C   0  0  0  0  0  1  0  0  0  0  0  0
   -4.0060   -1.5660    0.0680 C   0  0  0  0  0  0  0  0  0  0  0  0
   -5.0660   -2.0360   -0.3320 O   0  0  0  0  0  0  0  0  0  0  0  0
   -3.9310   -0.2400    0.3610 O   0  0  0  0  0  0  0  0  0  0  0  0
   -5.0070    0.6190    0.2180 C   0  0  0  0  0  2  0  0  0  0  0  0
   -4.6020    2.0360    0.5900 C   0  0  0  0  0  1  0  0  0  0  0  0
   -1.8730   -4.7320   -0.1350 N   0  0  0  0  0  0  0  0  0  0  0  0
   -0.9010   -4.4380   -0.0320 H   0  0  0  0  0  0  0  0  0  0  0  0
   -2.1460   -6.1360   -0.3690 C   0  0  0  0  0  2  0  0  0  0  0  0
   -0.8930   -6.9800   -0.3770 C   0  0  0  0  0  3  0  0  0  0  0  0
    0.3270   -6.4320   -0.1950 O   0  0  0  0  0  0  0  0  0  0  0  0
    1.0900   -6.9750   -0.2050 H   0  0  0  0  0  0  0  0  0  0  0  0
   -0.9930   -8.3080   -0.5690 O   0  0  0  0  0  0  0  0  0  0  0  0
   -1.8340   -8.7010   -0.6970 H   0  0  0  0  0  0  0  0  0  0  0  0
  1  3  1  0  0  0  0
  2  1  2  0  0  0  0
  3  5  1  0  0  0  0
  3  4  2  0  0  0  0
  5  6  1  0  0  0  0
  6  7  1  0  0  0  0
  8  1  1  0  0  0  0
  8 10  1  0  0  0  0
  9  8  2  0  0  0  0
 11 10  1  0  0  0  0
 11 12  1  0  0  0  0
 13  2  1  0  0  0  0
 13 14  1  0  0  0  0
 15 13  1  0  0  0  0
 16 15  1  0  0  0  0
 16 17  1  0  0  0  0
 18 17  1  0  0  0  0
 19 16  1  0  0  0  0
 20 19  1  0  0  0  0
M  END
>  <REMARK>
  11 active torsions:
  status: ('A' for Active; 'I' for Inactive)
    1  A    between atoms: C_2  and  O_3 
    2  A    between atoms: O_3  and  C_4 
    3  A    between atoms: C_4  and  C_6 
    4  A    between atoms: C_6  and  C_13 
    5  A    between atoms: C_7  and  N_8 
    6  A    between atoms: N_8  and  C_9 
    7  A    between atoms: C_9  and  C_10 
    8  A    between atoms: C_10  and  O_11 
    9  A    between atoms: C_10  and  O_12 
   10  A    between atoms: C_13  and  O_15 
   11  A    between atoms: O_15  and  C_16 

>  <TORSDO>
F 11

$$$$
C:\Users\siddh\.mgltools\PyRx\Ligands\ZINC000100020331_uff_E=359.97.pdbqt
 OpenBabel04182118313D

 19 20  0  0  1  0  0  0  0  0999 V2000
   -2.8340   -3.9450   -0.0050 C   0  0  0  0  0  0  0  0  0  0  0  0
   -2.8960   -4.6710    1.2120 C   0  0  0  0  0  3  0  0  0  0  0  0
   -2.7860   -6.0680    1.1690 C   0  0  0  0  0  0  0  0  0  0  0  0
   -2.8180   -6.7330    2.1890 O   0  0  0  0  0  0  0  0  0  0  0  0
   -2.6340   -6.6570   -0.0520 N   0  0  0  0  0  0  0  0  0  0  0  0
   -2.5170   -7.9380   -0.3440 N   0  0  0  0  0  0  0  0  0  0  0  0
   -2.5210   -8.7210    0.3090 H   0  0  0  0  0  0  0  0  0  0  0  0
   -2.3910   -7.9950   -1.6930 C   0  0  0  0  0  2  0  0  0  0  0  0
   -2.4240   -6.7560   -2.2520 N   0  0  0  0  0  0  0  0  0  0  0  0
   -2.5770   -5.9590   -1.1820 C   0  0  2  0  0  3  0  0  0  0  0  0
   -2.6620   -4.6060   -1.1930 N   0  0  0  0  0  0  0  0  0  0  0  0
   -2.6000   -4.0890   -2.0700 H   0  0  0  0  0  0  0  0  0  0  0  0
   -2.3530   -6.5060   -3.2010 H   0  0  0  0  0  0  0  0  0  0  0  0
   -2.8720   -2.4400    0.0100 C   0  0  0  0  0  2  0  0  0  0  0  0
   -1.4720   -1.8770   -0.0200 C   0  0  0  0  0  0  0  0  0  0  0  0
   -0.5080   -2.6340   -0.0360 O   0  0  0  0  0  0  0  0  0  0  0  0
   -1.2780   -0.5320   -0.0020 O   0  0  0  0  0  0  0  0  0  0  0  0
   -0.0050    0.0100   -0.0020 C   0  0  0  0  0  2  0  0  0  0  0  0
   -0.0530    1.5280    0.0110 C   0  0  0  0  0  1  0  0  0  0  0  0
  1 14  1  0  0  0  0
  1  2  2  0  0  0  0
  3  2  1  0  0  0  0
  3  4  2  0  0  0  0
  5  3  1  0  0  0  0
  6  5  1  0  0  0  0
  6  7  1  0  0  0  0
  8  6  1  0  0  0  0
  9  8  1  0  0  0  0
 10  9  1  1  0  0  0
 10  5  1  0  0  0  0
 11 10  1  0  0  0  0
 11  1  1  0  0  0  0
 12 11  1  0  0  0  0
 13  9  1  0  0  0  0
 15 17  1  0  0  0  0
 15 14  1  0  0  0  0
 16 15  2  0  0  0  0
 17 18  1  0  0  0  0
 18 19  1  0  0  0  0
M  END
>  <REMARK>
  4 active torsions:
  status: ('A' for Active; 'I' for Inactive)
    1  A    between atoms: C_2  and  O_3 
    2  A    between atoms: O_3  and  C_4 
    3  A    between atoms: C_4  and  C_6 
    4  A    between atoms: C_6  and  C_7 

>  <TORSDO>
F 4

$$$$
C:\Users\siddh\.mgltools\PyRx\Ligands\ZINC000098113582_uff_E=581.84.pdbqt
 OpenBabel04182118313D

 17 16  0  0  1  0  0  0  0  0999 V2000
   -0.7040   -3.1730   -0.0410 N   0  0  0  0  0  0  0  0  0  0  0  0
   -0.5570   -3.9830   -0.6860 H   0  0  0  0  0  0  0  0  0  0  0  0
   -1.7020   -1.9000   -0.7730 S   0  0  0  0  0  0  0  0  0  0  0  0
   -3.1940   -2.2630   -0.7090 O   0  0  0  0  0  0  0  0  0  0  0  0
   -1.3860   -1.8290   -2.2750 O   0  0  0  0  0  0  0  0  0  0  0  0
   -1.4590   -0.2810   -0.0830 N   0  0  0  0  0  0  0  0  0  0  0  0
   -1.9330   -0.1880    0.8440 H   0  0  0  0  0  0  0  0  0  0  0  0
   -0.0450    0.1210   -0.0300 C   0  0  0  0  0  3  0  0  0  0  0  0
    0.0300    1.6470   -0.0090 C   0  0  0  0  0  1  0  0  0  0  0  0
    0.6710   -0.4390    1.2100 C   0  0  0  0  0  1  0  0  0  0  0  0
   -1.1560   -3.5730    1.3000 C   0  0  1  0  0  3  0  0  0  0  0  0
   -2.2280   -4.6700    1.2300 C   0  0  0  0  0  1  0  0  0  0  0  0
    0.0240   -4.0700    2.0970 C   0  0  0  0  0  3  0  0  0  0  0  0
    1.2510   -4.1360    1.5400 O   0  0  0  0  0  0  0  0  0  0  0  0
    1.9770   -4.4470    2.0440 H   0  0  0  0  0  0  0  0  0  0  0  0
   -0.1380   -4.4320    3.3840 O   0  0  0  0  0  0  0  0  0  0  0  0
   -0.9870   -4.3890    3.7790 H   0  0  0  0  0  0  0  0  0  0  0  0
  1 11  1  0  0  0  0
  2  1  1  0  0  0  0
  3  4  2  0  0  0  0
  3  6  1  0  0  0  0
  3  1  1  0  0  0  0
  5  3  2  0  0  0  0
  6  8  1  0  0  0  0
  6  7  1  0  0  0  0
  8  9  1  0  0  0  0
  8 10  1  0  0  0  0
 11 12  1  6  0  0  0
 11 13  1  0  0  0  0
 13 16  1  0  0  0  0
 14 15  1  0  0  0  0
 14 13  1  0  0  0  0
 16 17  1  0  0  0  0
M  END
>  <REMARK>
  7 active torsions:
  status: ('A' for Active; 'I' for Inactive)
    1  A    between atoms: C_2  and  N_4 
    2  A    between atoms: N_4  and  S_5 
    3  A    between atoms: S_5  and  N_8 
    4  A    between atoms: N_8  and  C_9 
    5  A    between atoms: C_9  and  C_11 
    6  A    between atoms: C_11  and  O_12 
    7  A    between atoms: C_11  and  O_13 

>  <TORSDO>
F 7

$$$$
C:\Users\siddh\.mgltools\PyRx\Ligands\ZINC000097729439_uff_E=816.01.pdbqt
 OpenBabel04182118313D

 15 16  0  0  1  0  0  0  0  0999 V2000
   -0.0010    1.4330    0.0090 C   0  0  0  0  0  1  0  0  0  0  0  0
   -0.0360   -0.0590   -0.0000 C   0  0  0  0  0  0  0  0  0  0  0  0
   -1.1720   -0.8530   -0.0030 C   0  0  0  0  0  3  0  0  0  0  0  0
   -0.6840   -2.1390   -0.0120 C   0  0  0  0  0  0  0  0  0  0  0  0
   -1.3540   -3.1570   -0.0160 O   0  0  0  0  0  0  0  0  0  0  0  0
    0.6720   -2.1070   -0.0130 N   0  0  0  0  0  0  0  0  0  0  0  0
    1.0650   -0.8400   -0.0070 N   0  0  0  0  0  0  0  0  0  0  0  0
    1.9970   -0.5240   -0.0070 H   0  0  0  0  0  0  0  0  0  0  0  0
    1.6030   -3.2390   -0.0190 C   0  0  2  0  0  3  0  0  0  0  0  0
    2.5040   -3.2080    1.2340 C   0  0  0  0  0  2  0  0  0  0  0  0
    3.9530   -4.0910    0.6570 S   0  0  0  0  0  0  0  0  0  0  0  0
    3.5840   -4.2950   -1.0810 C   0  0  0  0  0  2  0  0  0  0  0  0
    4.2160   -5.4100    1.3980 O   0  0  0  0  0  0  0  0  0  0  0  0
    5.2270   -3.2570    0.8640 O   0  0  0  0  0  0  0  0  0  0  0  0
    2.5230   -3.2030   -1.2660 C   0  0  0  0  0  2  0  0  0  0  0  0
  2  1  1  0  0  0  0
  3  2  2  0  0  0  0
  4  3  1  0  0  0  0
  5  4  2  0  0  0  0
  6  4  1  0  0  0  0
  6  7  1  0  0  0  0
  7  8  1  0  0  0  0
  7  2  1  0  0  0  0
  9 15  1  6  0  0  0
  9  6  1  0  0  0  0
  9 10  1  0  0  0  0
 11 14  2  0  0  0  0
 11 10  1  0  0  0  0
 11 13  2  0  0  0  0
 12 11  1  0  0  0  0
 15 12  1  0  0  0  0
M  END
>  <REMARK>
  1 active torsions:
  status: ('A' for Active; 'I' for Inactive)
    1  A    between atoms: N_6  and  C_7 

>  <TORSDO>
F 1

$$$$
C:\Users\siddh\.mgltools\PyRx\Ligands\ZINC000097375660_uff_E=769.95.pdbqt
 OpenBabel04182118313D

 22 24  0  0  1  0  0  0  0  0999 V2000
   -0.7900    5.7340    0.0130 N   0  0  0  0  0  0  0  0  0  0  0  0
   -0.3670    6.3550    1.1010 N   0  0  0  0  0  2  0  0  0  0  0  0
    0.3170    7.4290    0.7440 N   0  0  0  0  0  0  0  0  0  0  0  0
    0.7680    8.1050    1.3610 H   0  0  0  0  0  0  0  0  0  0  0  0
    0.2960    7.4450   -0.6030 C   0  0  2  0  0  3  0  0  0  0  0  0
   -0.3980    6.3870   -1.0720 N   0  0  0  0  0  0  0  0  0  0  0  0
   -0.5810    6.1430   -2.0460 H   0  0  0  0  0  0  0  0  0  0  0  0
   -1.5840    4.5060    0.0240 C   0  0  0  0  0  2  0  0  0  0  0  0
   -0.7060    3.2850    0.0190 C   0  0  1  0  0  3  0  0  0  0  0  0
   -1.1810    2.0170    0.0260 N   0  0  0  0  0  0  0  0  0  0  0  0
   -0.0450    1.2770    0.0120 C   0  0  0  0  0  0  0  0  0  0  0  0
   -2.1170    1.7100    0.0370 H   0  0  0  0  0  0  0  0  0  0  0  0
   -0.0210    0.0590    0.0080 O   0  0  0  0  0  0  0  0  0  0  0  0
    1.0560    2.0570    0.0000 N   0  0  0  0  0  0  0  0  0  0  0  0
    0.6460    3.3140    0.0050 N   0  0  0  0  0  0  0  0  0  0  0  0
    2.0550    1.7530   -0.0120 H   0  0  0  0  0  0  0  0  0  0  0  0
    1.2370    4.1460   -0.0020 H   0  0  0  0  0  0  0  0  0  0  0  0
    0.9530    8.4800   -1.4230 C   0  0  0  0  0  0  0  0  0  0  0  0
    1.6830    9.5620   -0.8490 C   0  0  0  0  0  3  0  0  0  0  0  0
    2.2330   10.4320   -1.7910 C   0  0  0  0  0  3  0  0  0  0  0  0
    1.8030    9.8440   -3.2810 S   0  0  0  0  0  0  0  0  0  0  0  0
    0.9320    8.5050   -2.8220 C   0  0  0  0  0  3  0  0  0  0  0  0
  1  8  1  0  0  0  0
  1  2  1  0  0  0  0
  3  2  1  0  0  0  0
  3  4  1  0  0  0  0
  5 18  1  6  0  0  0
  5  3  1  0  0  0  0
  6  5  1  0  0  0  0
  6  1  1  0  0  0  0
  7  6  1  0  0  0  0
  9  8  1  6  0  0  0
  9 10  1  0  0  0  0
 10 12  1  0  0  0  0
 11 10  1  0  0  0  0
 13 11  2  0  0  0  0
 14 15  1  0  0  0  0
 14 11  1  0  0  0  0
 15  9  1  0  0  0  0
 16 14  1  0  0  0  0
 17 15  1  0  0  0  0
 18 19  1  0  0  0  0
 20 19  2  0  0  0  0
 21 22  1  0  0  0  0
 21 20  1  0  0  0  0
 22 18  2  0  0  0  0
M  END
>  <REMARK>
  3 active torsions:
  status: ('A' for Active; 'I' for Inactive)
    1  A    between atoms: C_4  and  C_5 
    2  A    between atoms: C_5  and  N_6 
    3  A    between atoms: C_10  and  C_11 

>  <TORSDO>
F 3

$$$$
C:\Users\siddh\.mgltools\PyRx\Ligands\ZINC000097056285_uff_E=378.78.pdbqt
 OpenBabel04182118313D

 20 21  0  0  1  0  0  0  0  0999 V2000
   -1.3420    1.9080    0.1020 C   0  0  1  0  0  3  0  0  0  0  0  0
   -2.3300    1.1970    1.0180 C   0  0  0  0  0  2  0  0  0  0  0  0
   -3.3660    2.3010    1.2070 C   0  0  0  0  0  2  0  0  0  0  0  0
   -2.5020    3.5260    1.5430 C   0  0  2  0  0  3  0  0  0  0  0  0
   -1.1680    3.2670    0.7890 C   0  0  0  0  0  2  0  0  0  0  0  0
   -2.2850    3.5870    2.9900 N   0  0  0  0  0  0  0  0  0  0  0  0
   -3.2090    4.1340    3.8310 C   0  0  0  0  0  0  0  0  0  0  0  0
   -4.2460    4.6040    3.3860 O   0  0  0  0  0  0  0  0  0  0  0  0
   -1.3960    3.2560    3.3920 H   0  0  0  0  0  0  0  0  0  0  0  0
   -2.9350    4.2010    5.3180 C   0  0  1  0  0  3  0  0  0  0  0  0
   -3.9470    4.9670    5.9540 O   0  0  0  0  0  0  0  0  0  0  0  0
   -3.6910    5.0240    7.3440 C   0  0  0  0  0  2  0  0  0  0  0  0
   -3.6870    3.6080    7.9290 C   0  0  0  0  0  2  0  0  0  0  0  0
   -2.6740    2.8330    7.3160 O   0  0  0  0  0  0  0  0  0  0  0  0
   -2.9050    2.7780    5.9210 C   0  0  0  0  0  2  0  0  0  0  0  0
   -0.0590    1.1560   -0.1450 C   0  0  0  0  0  3  0  0  0  0  0  0
   -0.1000   -0.0830   -0.6680 O   0  0  0  0  0  0  0  0  0  0  0  0
   -0.1610   -0.5930   -1.4520 H   0  0  0  0  0  0  0  0  0  0  0  0
    1.1340    1.7150    0.1410 O   0  0  0  0  0  0  0  0  0  0  0  0
    1.1720    2.5780    0.5060 H   0  0  0  0  0  0  0  0  0  0  0  0
  1 16  1  1  0  0  0
  1  5  1  0  0  0  0
  1  2  1  0  0  0  0
  2  3  1  0  0  0  0
  3  4  1  0  0  0  0
  4  6  1  1  0  0  0
  5  4  1  0  0  0  0
  6  9  1  0  0  0  0
  6  7  1  0  0  0  0
  8  7  2  0  0  0  0
 10  7  1  6  0  0  0
 10 15  1  0  0  0  0
 10 11  1  0  0  0  0
 11 12  1  0  0  0  0
 12 13  1  0  0  0  0
 14 13  1  0  0  0  0
 15 14  1  0  0  0  0
 16 19  1  0  0  0  0
 17 16  1  0  0  0  0
 18 17  1  0  0  0  0
 19 20  1  0  0  0  0
M  END
>  <REMARK>
  5 active torsions:
  status: ('A' for Active; 'I' for Inactive)
    1  A    between atoms: O_1  and  C_2 
    2  A    between atoms: C_2  and  O_3 
    3  A    between atoms: C_2  and  C_4 
    4  A    between atoms: C_7  and  N_8 
       I    between atoms: N_8  and  C_9 
    5  A    between atoms: C_9  and  C_11 

>  <TORSDO>
F 5

$$$$
C:\Users\siddh\.mgltools\PyRx\Ligands\ZINC000096531393_uff_E=136.63.pdbqt
 OpenBabel04182118313D

 18 19  0  0  1  0  0  0  0  0999 V2000
   -0.0660    1.5280    0.0510 C   0  0  0  0  0  1  0  0  0  0  0  0
   -0.0070    0.0650    0.0330 N   0  0  0  0  0  0  0  0  0  0  0  0
   -0.0680   -0.5690   -1.1400 N   0  0  0  0  0  0  0  0  0  0  0  0
   -0.1660   -0.0180   -1.9930 H   0  0  0  0  0  0  0  0  0  0  0  0
   -0.0040   -1.9240   -1.2360 C   0  0  0  0  0  0  0  0  0  0  0  0
   -0.0300   -2.5590   -2.6010 C   0  0  0  0  0  2  0  0  0  0  0  0
    0.3980   -4.0330   -2.5870 C   0  0  0  0  0  2  0  0  0  0  0  0
   -0.3280   -4.7810   -1.4660 C   0  0  2  0  0  3  0  0  0  0  0  0
    0.1200   -4.2080   -0.1040 C   0  0  0  0  0  2  0  0  0  0  0  0
    0.0950   -2.6960   -0.0620 C   0  0  0  0  0  0  0  0  0  0  0  0
    0.1730   -2.0400    1.1670 C   0  0  0  0  0  2  0  0  0  0  0  0
    0.1210   -0.6470    1.2090 C   0  0  0  0  0  0  0  0  0  0  0  0
    0.1820   -0.0720    2.2820 O   0  0  0  0  0  0  0  0  0  0  0  0
   -0.0840   -6.2730   -1.5130 C   0  0  0  0  0  3  0  0  0  0  0  0
   -0.6010   -7.0670   -0.5560 O   0  0  0  0  0  0  0  0  0  0  0  0
   -0.4510   -7.9910   -0.5830 H   0  0  0  0  0  0  0  0  0  0  0  0
    0.6330   -6.8250   -2.5130 O   0  0  0  0  0  0  0  0  0  0  0  0
    0.9970   -6.2820   -3.1840 H   0  0  0  0  0  0  0  0  0  0  0  0
  2  1  1  0  0  0  0
  2 12  1  0  0  0  0
  3  2  1  0  0  0  0
  4  3  1  0  0  0  0
  5  3  1  0  0  0  0
  5 10  2  0  0  0  0
  6  7  1  0  0  0  0
  6  5  1  0  0  0  0
  7  8  1  0  0  0  0
  8 14  1  1  0  0  0
  8  9  1  0  0  0  0
  9 10  1  0  0  0  0
 10 11  1  0  0  0  0
 11 12  1  0  0  0  0
 12 13  2  0  0  0  0
 14 15  1  0  0  0  0
 16 15  1  0  0  0  0
 17 14  1  0  0  0  0
 18 17  1  0  0  0  0
M  END
>  <REMARK>
  3 active torsions:
  status: ('A' for Active; 'I' for Inactive)
    1  A    between atoms: C_8  and  C_9 
    2  A    between atoms: C_9  and  O_10 
    3  A    between atoms: C_9  and  O_11 

>  <TORSDO>
F 3

$$$$
C:\Users\siddh\.mgltools\PyRx\Ligands\ZINC000096531391_uff_E=156.98.pdbqt
 OpenBabel04182118313D

 18 19  0  0  1  0  0  0  0  0999 V2000
    0.0140    1.5270    0.0410 C   0  0  0  0  0  1  0  0  0  0  0  0
    0.0190    0.0620    0.0400 N   0  0  0  0  0  0  0  0  0  0  0  0
    0.0610   -0.5700   -1.1340 N   0  0  0  0  0  0  0  0  0  0  0  0
    0.1120   -0.0180   -1.9890 H   0  0  0  0  0  0  0  0  0  0  0  0
    0.0390   -1.9270   -1.2290 C   0  0  0  0  0  0  0  0  0  0  0  0
    0.0360   -2.5600   -2.5970 C   0  0  0  0  0  2  0  0  0  0  0  0
   -0.3410   -4.0490   -2.5700 C   0  0  0  0  0  2  0  0  0  0  0  0
    0.4470   -4.7630   -1.4730 C   0  0  1  0  0  3  0  0  0  0  0  0
    0.0250   -4.2130   -0.0960 C   0  0  0  0  0  2  0  0  0  0  0  0
    0.0100   -2.7020   -0.0530 C   0  0  0  0  0  0  0  0  0  0  0  0
   -0.0340   -2.0490    1.1790 C   0  0  0  0  0  2  0  0  0  0  0  0
   -0.0310   -0.6550    1.2210 C   0  0  0  0  0  0  0  0  0  0  0  0
   -0.0570   -0.0850    2.2980 O   0  0  0  0  0  0  0  0  0  0  0  0
    0.2360   -6.2520   -1.5290 C   0  0  0  0  0  3  0  0  0  0  0  0
    1.2890   -7.0750   -1.6870 O   0  0  0  0  0  0  0  0  0  0  0  0
    1.1580   -8.0020   -1.7220 H   0  0  0  0  0  0  0  0  0  0  0  0
   -1.0040   -6.7690   -1.4250 O   0  0  0  0  0  0  0  0  0  0  0  0
   -1.7410   -6.2020   -1.3150 H   0  0  0  0  0  0  0  0  0  0  0  0
  2  1  1  0  0  0  0
  2 12  1  0  0  0  0
  3  2  1  0  0  0  0
  4  3  1  0  0  0  0
  5  3  1  0  0  0  0
  5 10  2  0  0  0  0
  6  7  1  0  0  0  0
  6  5  1  0  0  0  0
  7  8  1  0  0  0  0
  8 14  1  1  0  0  0
  8  9  1  0  0  0  0
  9 10  1  0  0  0  0
 10 11  1  0  0  0  0
 11 12  1  0  0  0  0
 12 13  2  0  0  0  0
 14 17  1  0  0  0  0
 15 14  1  0  0  0  0
 16 15  1  0  0  0  0
 17 18  1  0  0  0  0
M  END
>  <REMARK>
  3 active torsions:
  status: ('A' for Active; 'I' for Inactive)
    1  A    between atoms: C_8  and  C_9 
    2  A    between atoms: C_9  and  O_10 
    3  A    between atoms: C_9  and  O_11 

>  <TORSDO>
F 3

$$$$
C:\Users\siddh\.mgltools\PyRx\Ligands\ZINC000096503425_uff_E=167.67.pdbqt
 OpenBabel04182118313D

 18 17  0  0  0  0  0  0  0  0999 V2000
    0.0430   -0.1320    0.0020 O   0  0  0  0  0  0  0  0  0  0  0  0
   -0.0330    1.2120    0.0090 C   0  0  0  0  0  3  0  0  0  0  0  0
    0.1860   -1.0580   -0.0100 H   0  0  0  0  0  0  0  0  0  0  0  0
    1.1020    1.9400    0.0090 O   0  0  0  0  0  0  0  0  0  0  0  0
    1.0590    2.8760    0.0140 H   0  0  0  0  0  0  0  0  0  0  0  0
   -1.3620    1.9180    0.0140 C   0  0  0  0  0  2  0  0  0  0  0  0
   -2.5510    0.9530    0.0090 C   0  0  0  0  0  2  0  0  0  0  0  0
   -3.7450    1.7050   -0.0020 O   0  0  0  0  0  0  0  0  0  0  0  0
   -4.8560    0.8330    0.0260 C   0  0  0  0  0  2  0  0  0  0  0  0
   -6.1400    1.6560   -0.0240 C   0  0  0  0  0  2  0  0  0  0  0  0
   -6.1770    2.3750   -1.2380 O   0  0  0  0  0  0  0  0  0  0  0  0
   -7.3300    3.1890   -1.2790 C   0  0  0  0  0  2  0  0  0  0  0  0
   -7.3840    3.9060   -2.6240 C   0  0  0  0  0  2  0  0  0  0  0  0
   -7.4940    2.9440   -3.6510 O   0  0  0  0  0  0  0  0  0  0  0  0
   -7.4840    3.5830   -4.9100 C   0  0  0  0  0  2  0  0  0  0  0  0
   -7.6590    2.5310   -6.0000 C   0  0  0  0  0  2  0  0  0  0  0  0
   -8.8960    1.8930   -5.8450 O   0  0  0  0  0  0  0  0  0  0  0  0
   -8.9540    1.2250   -6.5770 H   0  0  0  0  0  0  0  0  0  0  0  0
  1  2  1  0  0  0  0
  2  4  1  0  0  0  0
  2  6  1  0  0  0  0
  3  1  1  0  0  0  0
  4  5  1  0  0  0  0
  7  6  1  0  0  0  0
  8  7  1  0  0  0  0
  8  9  1  0  0  0  0
 10  9  1  0  0  0  0
 11 10  1  0  0  0  0
 12 11  1  0  0  0  0
 13 12  1  0  0  0  0
 14 13  1  0  0  0  0
 15 14  1  0  0  0  0
 16 17  1  0  0  0  0
 16 15  1  0  0  0  0
 18 17  1  0  0  0  0
M  END
>  <REMARK>
  13 active torsions:
  status: ('A' for Active; 'I' for Inactive)
    1  A    between atoms: C_2  and  O_3 
    2  A    between atoms: C_2  and  C_4 
    3  A    between atoms: C_4  and  C_5 
    4  A    between atoms: C_5  and  O_6 
    5  A    between atoms: O_6  and  C_7 
    6  A    between atoms: C_7  and  C_8 
    7  A    between atoms: C_8  and  O_9 
    8  A    between atoms: O_9  and  C_10 
    9  A    between atoms: C_10  and  C_11 
   10  A    between atoms: C_11  and  O_12 
   11  A    between atoms: O_12  and  C_13 
   12  A    between atoms: C_13  and  C_14 
   13  A    between atoms: C_14  and  O_15 

>  <TORSDO>
F 13

$$$$
C:\Users\siddh\.mgltools\PyRx\Ligands\ZINC000096345933_uff_E=206.03.pdbqt
 OpenBabel04182118313D

 21 22  0  0  1  0  0  0  0  0999 V2000
   -2.4450    0.9740   -0.0880 C   0  0  2  0  0  3  0  0  0  0  0  0
   -2.2150   -0.3640   -0.0500 N   0  0  0  0  0  0  0  0  0  0  0  0
   -1.2520   -0.6980   -0.0830 H   0  0  0  0  0  0  0  0  0  0  0  0
   -3.2210   -1.2730    0.0290 C   0  0  0  0  0  0  0  0  0  0  0  0
   -4.5460   -0.8110    0.0940 C   0  0  0  0  0  3  0  0  0  0  0  0
   -4.7790    0.5650    0.0890 C   0  0  0  0  0  0  0  0  0  0  0  0
   -5.9180    0.9900    0.1690 O   0  0  0  0  0  0  0  0  0  0  0  0
   -3.7240    1.4380   -0.0070 N   0  0  0  0  0  0  0  0  0  0  0  0
   -3.9060    2.4680   -0.0230 H   0  0  0  0  0  0  0  0  0  0  0  0
   -1.3010    1.9530   -0.2340 C   0  0  0  0  0  3  0  0  0  0  0  0
    0.0890    1.3710   -0.3910 C   0  0  0  0  0  0  0  0  0  0  0  0
    0.3120    0.0420   -0.4010 O   0  0  0  0  0  0  0  0  0  0  0  0
    0.7170   -0.8030   -0.4180 H   0  0  0  0  0  0  0  0  0  0  0  0
    1.1320    2.2070   -0.5400 O   0  0  0  0  0  0  0  0  0  0  0  0
    0.9950    3.1340   -0.5360 H   0  0  0  0  0  0  0  0  0  0  0  0
   -2.9040   -2.6690    0.0680 N   0  0  0  0  0  0  0  0  0  0  0  0
   -1.6070   -3.1260    0.5380 C   0  0  0  0  0  2  0  0  0  0  0  0
   -0.9670   -3.9790   -0.5590 C   0  0  0  0  0  2  0  0  0  0  0  0
   -1.8390   -5.0340   -0.9340 O   0  0  0  0  0  0  0  0  0  0  0  0
   -3.0330   -4.5000   -1.4880 C   0  0  0  0  0  2  0  0  0  0  0  0
   -3.8050   -3.6920   -0.4310 C   0  0  0  0  0  2  0  0  0  0  0  0
  1 10  1  6  0  0  0
  1  2  1  0  0  0  0
  1  8  1  0  0  0  0
  2  4  1  0  0  0  0
  3  2  1  0  0  0  0
  4 16  1  0  0  0  0
  4  5  2  0  0  0  0
  6  5  1  0  0  0  0
  6  7  2  0  0  0  0
  8  6  1  0  0  0  0
  9  8  1  0  0  0  0
 11 10  2  0  0  0  0
 12 11  1  0  0  0  0
 13 12  1  0  0  0  0
 14 15  1  0  0  0  0
 14 11  1  0  0  0  0
 16 17  1  0  0  0  0
 18 17  1  0  0  0  0
 19 18  1  0  0  0  0
 20 19  1  0  0  0  0
 20 21  1  0  0  0  0
 21 16  1  0  0  0  0
M  END
>  <REMARK>
  5 active torsions:
  status: ('A' for Active; 'I' for Inactive)
    1  A    between atoms: O_1  and  C_2 
    2  A    between atoms: C_2  and  O_3 
    3  A    between atoms: C_2  and  C_4 
    4  A    between atoms: C_4  and  C_5 
    5  A    between atoms: C_8  and  N_9 

>  <TORSDO>
F 5

$$$$
C:\Users\siddh\.mgltools\PyRx\Ligands\ZINC000096316546_uff_E=109.62.pdbqt
 OpenBabel04182118313D

 17 17  0  0  1  0  0  0  0  0999 V2000
    1.4890   -4.3980    2.4290 C   0  0  1  0  0  3  0  0  0  0  0  0
    0.9840   -4.9230    1.2820 N   0  0  0  0  0  0  0  0  0  0  0  0
    0.6620   -4.3030    0.5390 H   0  0  0  0  0  0  0  0  0  0  0  0
    0.9060   -6.2800    1.1190 C   0  0  0  0  0  0  0  0  0  0  0  0
    0.4470   -6.7420    0.0890 O   0  0  0  0  0  0  0  0  0  0  0  0
    1.3550   -7.1200    2.1470 C   0  0  1  0  0  3  0  0  0  0  0  0
    1.3110   -8.6130    2.0200 C   0  0  0  0  0  1  0  0  0  0  0  0
    1.8460   -6.5550    3.2790 N   0  0  0  0  0  0  0  0  0  0  0  0
    2.1690   -7.1540    4.0390 H   0  0  0  0  0  0  0  0  0  0  0  0
    1.9140   -5.2300    3.4160 N   0  0  0  0  0  0  0  0  0  0  0  0
    2.2790   -4.8480    4.2470 H   0  0  0  0  0  0  0  0  0  0  0  0
    1.6370   -2.6200    2.6680 S   0  0  0  0  0  0  0  0  0  0  0  0
    0.7310   -2.0520    1.1800 C   0  0  0  0  0  2  0  0  0  0  0  0
    0.6700   -0.5480    1.1210 C   0  0  0  0  0  0  0  0  0  0  0  0
    1.1830    0.1300    2.0020 O   0  0  0  0  0  0  0  0  0  0  0  0
    0.0400    0.0490    0.0760 O   0  0  0  0  0  0  0  0  0  0  0  0
   -0.0590    1.4200   -0.0560 C   0  0  0  0  0  1  0  0  0  0  0  0
  1 12  1  6  0  0  0
  1 10  1  0  0  0  0
  2  1  1  0  0  0  0
  3  2  1  0  0  0  0
  4  2  1  0  0  0  0
  4  6  1  0  0  0  0
  5  4  2  0  0  0  0
  6  7  1  6  0  0  0
  6  8  1  0  0  0  0
  8 10  1  0  0  0  0
  8  9  1  0  0  0  0
 10 11  1  0  0  0  0
 13 12  1  0  0  0  0
 14 13  1  0  0  0  0
 14 15  2  0  0  0  0
 16 14  1  0  0  0  0
 17 16  1  0  0  0  0
M  END
>  <REMARK>
  4 active torsions:
  status: ('A' for Active; 'I' for Inactive)
    1  A    between atoms: O_2  and  C_3 
    2  A    between atoms: C_3  and  C_5 
    3  A    between atoms: C_5  and  S_6 
    4  A    between atoms: S_6  and  C_7 

>  <TORSDO>
F 4

$$$$
C:\Users\siddh\.mgltools\PyRx\Ligands\ZINC000096118974_uff_E=553.77.pdbqt
 OpenBabel04182118313D

 18 19  0  0  1  0  0  0  0  0999 V2000
   -0.0610   -0.5110   -2.5020 C   0  0  0  0  0  3  0  0  0  0  0  0
   -0.5350   -1.2660   -3.5160 C   0  0  0  0  0  0  0  0  0  0  0  0
   -1.1360   -2.5390   -3.4600 N   0  0  0  0  0  0  0  0  0  0  0  0
   -1.4690   -2.8580   -4.7320 C   0  0  0  0  0  0  0  0  0  0  0  0
   -2.0310   -3.8940   -5.0410 O   0  0  0  0  0  0  0  0  0  0  0  0
   -1.1330   -1.8960   -5.6270 N   0  0  0  0  0  0  0  0  0  0  0  0
   -0.5640   -0.8960   -4.9260 C   0  0  0  0  0  0  0  0  0  0  0  0
   -0.1360    0.1320   -5.4270 O   0  0  0  0  0  0  0  0  0  0  0  0
   -1.3520   -3.1180   -2.6410 H   0  0  0  0  0  0  0  0  0  0  0  0
   -1.2770   -1.9240   -6.6000 H   0  0  0  0  0  0  0  0  0  0  0  0
    0.0260   -0.9140   -1.0710 C   0  0  0  0  0  0  0  0  0  0  0  0
    0.1940   -0.0640    0.0150 C   0  0  2  0  0  3  0  0  0  0  0  0
    0.2780    1.4370   -0.0060 C   0  0  0  0  0  1  0  0  0  0  0  0
    0.2820   -0.8160    1.1330 N   0  0  0  0  0  0  0  0  0  0  0  0
    0.1950   -2.0960    0.8120 N   0  0  0  0  0  0  0  0  0  0  0  0
    0.4520   -0.3580    2.5090 C   0  0  0  0  0  1  0  0  0  0  0  0
    0.0330   -2.1910   -0.5220 C   0  0  0  0  0  3  0  0  0  0  0  0
    0.2420   -2.8790    1.4640 H   0  0  0  0  0  0  0  0  0  0  0  0
  1 11  1  0  0  0  0
  2  3  1  0  0  0  0
  2  1  2  0  0  0  0
  3  9  1  0  0  0  0
  4  3  1  0  0  0  0
  5  4  2  0  0  0  0
  6  7  1  0  0  0  0
  6  4  1  0  0  0  0
  7  2  1  0  0  0  0
  8  7  2  0  0  0  0
 10  6  1  0  0  0  0
 11 17  2  0  0  0  0
 11 12  1  0  0  0  0
 12 13  1  6  0  0  0
 12 14  1  0  0  0  0
 14 16  1  0  0  0  0
 15 14  1  0  0  0  0
 15 18  1  0  0  0  0
 17 15  1  0  0  0  0
M  END
>  <REMARK>
  1 active torsions:
  status: ('A' for Active; 'I' for Inactive)
    1  A    between atoms: C_3  and  C_4 

>  <TORSDO>
F 1

$$$$
C:\Users\siddh\.mgltools\PyRx\Ligands\ZINC000096113659_uff_E=327.17.pdbqt
 OpenBabel04182118313D

 25 26  0  0  1  0  0  0  0  0999 V2000
    0.0160    1.4420    0.0080 N   0  0  0  0  0  0  0  0  0  0  0  0
    0.0450    0.0340    0.0010 C   0  0  1  0  0  3  0  0  0  0  0  0
   -1.1320   -0.6640    0.0030 N   0  0  0  0  0  0  0  0  0  0  0  0
   -2.0140   -0.1510    0.0110 H   0  0  0  0  0  0  0  0  0  0  0  0
   -1.1580   -2.0280   -0.0040 C   0  0  1  0  0  3  0  0  0  0  0  0
    0.0660   -2.6950   -0.0130 C   0  0  0  0  0  0  0  0  0  0  0  0
    0.3580   -4.0020   -0.0210 N   0  0  0  0  0  0  0  0  0  0  0  0
    1.7150   -4.0520   -0.0280 C   0  0  0  0  0  2  0  0  0  0  0  0
    2.2750   -2.8130   -0.0250 N   0  0  0  0  0  0  0  0  0  0  0  0
    3.2650   -2.5700   -0.0290 H   0  0  0  0  0  0  0  0  0  0  0  0
    1.2170   -1.9850   -0.0150 C   0  0  0  0  0  0  0  0  0  0  0  0
    1.2420   -0.6330   -0.0090 N   0  0  0  0  0  0  0  0  0  0  0  0
    2.1260   -0.1250   -0.0110 H   0  0  0  0  0  0  0  0  0  0  0  0
    0.8930    1.9810    0.0050 H   0  0  0  0  0  0  0  0  0  0  0  0
   -0.8880    1.9370    0.0160 H   0  0  0  0  0  0  0  0  0  0  0  0
   -0.2990   -4.8140   -0.0220 H   0  0  0  0  0  0  0  0  0  0  0  0
   -2.3970   -2.7160   -0.0010 N   0  0  0  0  0  0  0  0  0  0  0  0
   -2.4150   -3.7460   -0.0070 H   0  0  0  0  0  0  0  0  0  0  0  0
   -3.6350   -1.9630    0.0080 C   0  0  0  0  0  2  0  0  0  0  0  0
   -4.8420   -2.8960    0.0090 C   0  0  0  0  0  2  0  0  0  0  0  0
   -6.1390   -2.1360    0.0190 C   0  0  0  0  0  3  0  0  0  0  0  0
   -6.1560   -0.7880    0.0260 O   0  0  0  0  0  0  0  0  0  0  0  0
   -6.9730   -0.3290    0.0320 H   0  0  0  0  0  0  0  0  0  0  0  0
   -7.3010   -2.8130    0.0200 O   0  0  0  0  0  0  0  0  0  0  0  0
   -7.2980   -3.7500    0.0150 H   0  0  0  0  0  0  0  0  0  0  0  0
  1 15  1  0  0  0  0
  2  3  1  0  0  0  0
  2  1  1  6  0  0  0
  3  4  1  0  0  0  0
  5 17  1  1  0  0  0
  5  3  1  0  0  0  0
  6  5  1  0  0  0  0
  7  6  1  0  0  0  0
  8  9  1  0  0  0  0
  8  7  1  0  0  0  0
  9 11  1  0  0  0  0
 10  9  1  0  0  0  0
 11  6  2  0  0  0  0
 11 12  1  0  0  0  0
 12  2  1  0  0  0  0
 13 12  1  0  0  0  0
 14  1  1  0  0  0  0
 16  7  1  0  0  0  0
 17 19  1  0  0  0  0
 18 17  1  0  0  0  0
 19 20  1  0  0  0  0
 20 21  1  0  0  0  0
 21 24  1  0  0  0  0
 21 22  1  0  0  0  0
 22 23  1  0  0  0  0
 25 24  1  0  0  0  0
M  END
>  <REMARK>
  6 active torsions:
  status: ('A' for Active; 'I' for Inactive)
       I    between atoms: N_1  and  C_2 
    1  A    between atoms: C_5  and  N_6 
    2  A    between atoms: N_6  and  C_7 
    3  A    between atoms: C_7  and  C_8 
    4  A    between atoms: C_8  and  C_9 
    5  A    between atoms: C_9  and  O_10 
    6  A    between atoms: C_9  and  O_11 

>  <TORSDO>
F 6

$$$$
C:\Users\siddh\.mgltools\PyRx\Ligands\ZINC000096032231_uff_E=329.76.pdbqt
 OpenBabel04182118313D

 12 12  0  0  1  0  0  0  0  0999 V2000
    2.1080   -0.5070   -0.9400 N   0  0  0  0  0  0  0  0  0  0  0  0
    2.8990    0.4870   -1.3050 N   0  0  0  0  0  0  0  0  0  0  0  0
    2.6160    1.3550   -1.7610 H   0  0  0  0  0  0  0  0  0  0  0  0
    4.1550    0.1300   -0.9560 C   0  0  1  0  0  3  0  0  0  0  0  0
    5.6960    1.2190   -1.2430 Br  0  0  0  0  0  0  0  0  0  0  0  0
    4.1900   -1.0890   -0.3700 N   0  0  0  0  0  0  0  0  0  0  0  0
    2.8870   -1.4590   -0.3780 C   0  0  0  0  0  0  0  0  0  0  0  0
    2.4730   -2.5160    0.0670 O   0  0  0  0  0  0  0  0  0  0  0  0
    4.9670   -1.5840   -0.0240 H   0  0  0  0  0  0  0  0  0  0  0  0
    0.6590   -0.5270   -1.1220 C   0  0  0  0  0  2  0  0  0  0  0  0
    0.0030   -0.0160    0.0230 O   0  0  0  0  0  0  0  0  0  0  0  0
   -0.0060    1.3960   -0.0080 C   0  0  0  0  0  1  0  0  0  0  0  0
  1  7  1  0  0  0  0
  2  4  1  0  0  0  0
  2  1  1  0  0  0  0
  3  2  1  0  0  0  0
  4  5  1  1  0  0  0
  4  6  1  0  0  0  0
  6  9  1  0  0  0  0
  7  6  1  0  0  0  0
  7  8  2  0  0  0  0
 10  1  1  0  0  0  0
 10 11  1  0  0  0  0
 12 11  1  0  0  0  0
M  END
>  <REMARK>
  2 active torsions:
  status: ('A' for Active; 'I' for Inactive)
    1  A    between atoms: O_2  and  C_3 
    2  A    between atoms: C_3  and  N_4 

>  <TORSDO>
F 2

$$$$
C:\Users\siddh\.mgltools\PyRx\Ligands\ZINC000095919628_uff_E=228.03.pdbqt
 OpenBabel04182118313D

 18 18  0  0  1  0  0  0  0  0999 V2000
   -1.3120   -2.1140   -0.0730 C   0  0  2  0  0  3  0  0  0  0  0  0
   -0.6250   -2.6980   -1.3410 C   0  0  1  0  0  3  0  0  0  0  0  0
    0.8460   -3.0600   -1.1070 C   0  0  0  0  0  1  0  0  0  0  0  0
   -1.3960   -3.8760   -1.6150 N   0  0  0  0  0  0  0  0  0  0  0  0
   -2.5570   -3.8910   -0.9530 C   0  0  0  0  0  0  0  0  0  0  0  0
   -3.4070   -4.7420   -1.1550 O   0  0  0  0  0  0  0  0  0  0  0  0
   -2.7590   -2.6900   -0.0920 C   0  0  1  0  0  3  0  0  0  0  0  0
   -1.1560   -4.5670   -2.3430 H   0  0  0  0  0  0  0  0  0  0  0  0
   -3.2840   -3.0000    1.3270 C   0  0  0  0  0  2  0  0  0  0  0  0
   -4.7200   -3.4560    1.3470 C   0  0  0  0  0  3  0  0  0  0  0  0
   -5.4550   -3.5000    0.2180 O   0  0  0  0  0  0  0  0  0  0  0  0
   -6.3460   -3.7860    0.2500 H   0  0  0  0  0  0  0  0  0  0  0  0
   -5.2890   -3.7970    2.5180 O   0  0  0  0  0  0  0  0  0  0  0  0
   -4.7870   -3.7700    3.3090 H   0  0  0  0  0  0  0  0  0  0  0  0
   -1.2480   -0.6030    0.0380 C   0  0  0  0  0  0  0  0  0  0  0  0
   -2.2850    0.0450    0.1120 O   0  0  0  0  0  0  0  0  0  0  0  0
   -0.0490    0.0340    0.0280 O   0  0  0  0  0  0  0  0  0  0  0  0
    0.0550    1.4120    0.0300 C   0  0  0  0  0  1  0  0  0  0  0  0
  1 15  1  6  0  0  0
  2  3  1  1  0  0  0
  2  1  1  0  0  0  0
  4  2  1  0  0  0  0
  4  5  1  0  0  0  0
  5  7  1  0  0  0  0
  6  5  2  0  0  0  0
  7  1  1  0  0  0  0
  7  9  1  1  0  0  0
  8  4  1  0  0  0  0
  9 10  1  0  0  0  0
 10 13  1  0  0  0  0
 11 12  1  0  0  0  0
 11 10  1  0  0  0  0
 13 14  1  0  0  0  0
 15 16  2  0  0  0  0
 17 18  1  0  0  0  0
 17 15  1  0  0  0  0
M  END
>  <REMARK>
  6 active torsions:
  status: ('A' for Active; 'I' for Inactive)
    1  A    between atoms: O_2  and  C_3 
    2  A    between atoms: C_3  and  C_5 
    3  A    between atoms: C_11  and  C_12 
    4  A    between atoms: C_12  and  C_13 
    5  A    between atoms: C_13  and  O_14 
    6  A    between atoms: C_13  and  O_15 

>  <TORSDO>
F 6

$$$$
C:\Users\siddh\.mgltools\PyRx\Ligands\ZINC000095863104_uff_E=289.56.pdbqt
 OpenBabel04182118313D

 17 18  0  0  1  0  0  0  0  0999 V2000
    0.5940   -0.5120   -1.1090 C   0  0  2  0  0  3  0  0  0  0  0  0
   -0.2980   -0.3000   -2.1820 O   0  0  0  0  0  0  0  0  0  0  0  0
   -0.2500   -1.4640   -2.9880 C   0  0  2  0  0  3  0  0  0  0  0  0
    0.8410   -2.3950   -2.4530 C   0  0  1  0  0  3  0  0  0  0  0  0
    2.1320   -2.0950   -2.8900 O   0  0  0  0  0  0  0  0  0  0  0  0
    2.9400   -2.3760   -1.7590 C   0  0  0  0  0  0  0  0  0  0  0  0
    3.5240   -3.7940   -1.8580 C   0  0  0  0  0  1  0  0  0  0  0  0
    4.0810   -1.3520   -1.7220 C   0  0  0  0  0  1  0  0  0  0  0  0
    2.1580   -2.2810   -0.5760 O   0  0  0  0  0  0  0  0  0  0  0  0
    0.8640   -2.0150   -1.0370 C   0  0  1  0  0  3  0  0  0  0  0  0
   -0.0290   -1.1260   -4.4360 C   0  0  0  0  0  3  0  0  0  0  0  0
    0.1540    0.1550   -4.8150 O   0  0  0  0  0  0  0  0  0  0  0  0
    0.2910    0.3610   -5.7180 H   0  0  0  0  0  0  0  0  0  0  0  0
    0.0030   -2.1040   -5.3600 O   0  0  0  0  0  0  0  0  0  0  0  0
   -0.1230   -2.9960   -5.1030 H   0  0  0  0  0  0  0  0  0  0  0  0
    0.0410   -0.0850    0.1200 O   0  0  0  0  0  0  0  0  0  0  0  0
    0.0550    1.3230    0.1940 C   0  0  0  0  0  1  0  0  0  0  0  0
  1 10  1  0  0  0  0
  1 16  1  1  0  0  0
  2  1  1  0  0  0  0
  3 11  1  6  0  0  0
  3  4  1  0  0  0  0
  3  2  1  0  0  0  0
  4  5  1  6  0  0  0
  4 10  1  0  0  0  0
  5  6  1  0  0  0  0
  6  8  1  0  0  0  0
  6  9  1  0  0  0  0
  7  6  1  0  0  0  0
 10  9  1  6  0  0  0
 12 11  1  0  0  0  0
 13 12  1  0  0  0  0
 14 15  1  0  0  0  0
 14 11  1  0  0  0  0
 16 17  1  0  0  0  0
M  END
>  <REMARK>
  4 active torsions:
  status: ('A' for Active; 'I' for Inactive)
    1  A    between atoms: O_2  and  C_3 
    2  A    between atoms: C_5  and  C_6 
    3  A    between atoms: C_6  and  O_7 
    4  A    between atoms: C_6  and  O_8 

>  <TORSDO>
F 4

$$$$
C:\Users\siddh\.mgltools\PyRx\Ligands\ZINC000095485801_uff_E=326.10.pdbqt
 OpenBabel04182118313D

 24 25  0  0  1  0  0  0  0  0999 V2000
    0.0230    1.4500    0.0080 N   0  0  0  0  0  0  0  0  0  0  0  0
    0.0490    0.0420    0.0010 C   0  0  1  0  0  3  0  0  0  0  0  0
   -1.1310   -0.6550    0.0030 N   0  0  0  0  0  0  0  0  0  0  0  0
   -2.0120   -0.1420    0.0100 H   0  0  0  0  0  0  0  0  0  0  0  0
   -1.1550   -2.0200   -0.0040 C   0  0  1  0  0  3  0  0  0  0  0  0
    0.0690   -2.6860   -0.0130 C   0  0  0  0  0  0  0  0  0  0  0  0
    0.3580   -3.9950   -0.0210 N   0  0  0  0  0  0  0  0  0  0  0  0
    1.7150   -4.0470   -0.0280 C   0  0  0  0  0  2  0  0  0  0  0  0
    2.2770   -2.8090   -0.0250 N   0  0  0  0  0  0  0  0  0  0  0  0
    3.2680   -2.5670   -0.0290 H   0  0  0  0  0  0  0  0  0  0  0  0
    1.2200   -1.9790   -0.0150 C   0  0  0  0  0  0  0  0  0  0  0  0
    1.2460   -0.6270   -0.0090 N   0  0  0  0  0  0  0  0  0  0  0  0
    2.1310   -0.1190   -0.0110 H   0  0  0  0  0  0  0  0  0  0  0  0
    0.9000    1.9880    0.0060 H   0  0  0  0  0  0  0  0  0  0  0  0
   -0.8810    1.9460    0.0160 H   0  0  0  0  0  0  0  0  0  0  0  0
   -0.2990   -4.8060   -0.0220 H   0  0  0  0  0  0  0  0  0  0  0  0
   -2.3900   -2.7150   -0.0010 N   0  0  0  0  0  0  0  0  0  0  0  0
   -2.3820   -3.7430   -0.0070 H   0  0  0  0  0  0  0  0  0  0  0  0
   -3.6460   -1.9820    0.0080 C   0  0  0  0  0  2  0  0  0  0  0  0
   -4.8440   -2.8920    0.0090 C   0  0  0  0  0  3  0  0  0  0  0  0
   -4.7020   -4.2320    0.0010 O   0  0  0  0  0  0  0  0  0  0  0  0
   -5.4600   -4.7830    0.0010 H   0  0  0  0  0  0  0  0  0  0  0  0
   -6.0790   -2.3590    0.0170 O   0  0  0  0  0  0  0  0  0  0  0  0
   -6.1880   -1.4290    0.0230 H   0  0  0  0  0  0  0  0  0  0  0  0
  1 15  1  0  0  0  0
  2  3  1  0  0  0  0
  2  1  1  6  0  0  0
  3  4  1  0  0  0  0
  5 17  1  1  0  0  0
  5  3  1  0  0  0  0
  6  5  1  0  0  0  0
  7  6  1  0  0  0  0
  8  9  1  0  0  0  0
  8  7  1  0  0  0  0
  9 11  1  0  0  0  0
 10  9  1  0  0  0  0
 11  6  2  0  0  0  0
 11 12  1  0  0  0  0
 12  2  1  0  0  0  0
 13 12  1  0  0  0  0
 14  1  1  0  0  0  0
 16  7  1  0  0  0  0
 17 19  1  0  0  0  0
 18 17  1  0  0  0  0
 19 20  1  0  0  0  0
 20 23  1  0  0  0  0
 21 22  1  0  0  0  0
 21 20  1  0  0  0  0
 23 24  1  0  0  0  0
M  END
>  <REMARK>
  5 active torsions:
  status: ('A' for Active; 'I' for Inactive)
       I    between atoms: N_1  and  C_2 
    1  A    between atoms: C_5  and  N_6 
    2  A    between atoms: N_6  and  C_7 
    3  A    between atoms: C_7  and  C_8 
    4  A    between atoms: C_8  and  O_9 
    5  A    between atoms: C_8  and  O_10 

>  <TORSDO>
F 5

$$$$
C:\Users\siddh\.mgltools\PyRx\Ligands\ZINC000095386691_uff_E=181.30.pdbqt
 OpenBabel04182118313D

 23 23  0  0  1  0  0  0  0  0999 V2000
    2.2520   -5.4600   -4.3690 C   0  0  1  0  0  3  0  0  0  0  0  0
    1.7860   -6.4500   -3.5530 N   0  0  0  0  0  0  0  0  0  0  0  0
    1.3510   -6.1970   -2.6660 H   0  0  0  0  0  0  0  0  0  0  0  0
    1.8830   -7.7590   -3.8860 C   0  0  0  0  0  2  0  0  0  0  0  0
    2.4500   -8.1200   -5.0590 N   0  0  0  0  0  0  0  0  0  0  0  0
    2.5170   -9.1090   -5.3000 H   0  0  0  0  0  0  0  0  0  0  0  0
    2.9300   -7.1880   -5.9190 C   0  0  0  0  0  3  0  0  0  0  0  0
    2.8570   -5.8170   -5.6140 C   0  0  0  0  0  0  0  0  0  0  0  0
    2.1050   -4.1090   -3.9410 N   0  0  0  0  0  0  0  0  0  0  0  0
    2.4770   -3.3380   -4.4940 H   0  0  0  0  0  0  0  0  0  0  0  0
    1.4120   -3.7720   -2.7160 C   0  0  0  0  0  2  0  0  0  0  0  0
    1.4110   -2.2460   -2.5210 C   0  0  1  0  0  3  0  0  0  0  0  0
    0.6450   -1.8320   -1.2690 C   0  0  0  0  0  2  0  0  0  0  0  0
    0.6150   -0.4230   -1.2160 O   0  0  0  0  0  0  0  0  0  0  0  0
   -0.0870   -0.0100   -0.0670 C   0  0  0  0  0  2  0  0  0  0  0  0
   -0.1310    1.5090   -0.0500 C   0  0  0  0  0  1  0  0  0  0  0  0
    2.7260   -1.7430   -2.4810 O   0  0  0  0  0  0  0  0  0  0  0  0
    3.2060   -2.2080   -1.7460 H   0  0  0  0  0  0  0  0  0  0  0  0
    3.4130   -4.8540   -6.6290 C   0  0  0  0  0  3  0  0  0  0  0  0
    3.8880   -5.3250   -7.7980 O   0  0  0  0  0  0  0  0  0  0  0  0
    4.2350   -4.7330   -8.4350 H   0  0  0  0  0  0  0  0  0  0  0  0
    3.4630   -3.5270   -6.4240 O   0  0  0  0  0  0  0  0  0  0  0  0
    3.1420   -3.1640   -5.6230 H   0  0  0  0  0  0  0  0  0  0  0  0
  1  9  1  6  0  0  0
  1  2  1  0  0  0  0
  2  3  1  0  0  0  0
  4  2  1  0  0  0  0
  5  4  1  0  0  0  0
  6  5  1  0  0  0  0
  7  8  2  0  0  0  0
  7  5  1  0  0  0  0
  8  1  1  0  0  0  0
  9 11  1  0  0  0  0
 10  9  1  0  0  0  0
 12 11  1  1  0  0  0
 12 17  1  0  0  0  0
 12 13  1  0  0  0  0
 13 14  1  0  0  0  0
 14 15  1  0  0  0  0
 15 16  1  0  0  0  0
 17 18  1  0  0  0  0
 19 22  1  0  0  0  0
 19  8  1  0  0  0  0
 20 19  1  0  0  0  0
 21 20  1  0  0  0  0
 22 23  1  0  0  0  0
M  END
>  <REMARK>
  10 active torsions:
  status: ('A' for Active; 'I' for Inactive)
    1  A    between atoms: C_2  and  O_3 
    2  A    between atoms: O_3  and  C_4 
    3  A    between atoms: C_4  and  C_5 
    4  A    between atoms: C_5  and  O_6 
    5  A    between atoms: C_5  and  C_7 
    6  A    between atoms: C_7  and  N_8 
    7  A    between atoms: N_8  and  C_9 
    8  A    between atoms: C_16  and  C_17 
    9  A    between atoms: C_17  and  O_18 
   10  A    between atoms: C_17  and  O_19 

>  <TORSDO>
F 10

$$$$
C:\Users\siddh\.mgltools\PyRx\Ligands\ZINC000095386690_uff_E=181.49.pdbqt
 OpenBabel04182118313D

 23 23  0  0  1  0  0  0  0  0999 V2000
    2.7650   -5.4450   -4.0770 C   0  0  1  0  0  3  0  0  0  0  0  0
    2.4020   -6.4270   -3.2010 N   0  0  0  0  0  0  0  0  0  0  0  0
    1.8890   -6.1710   -2.3580 H   0  0  0  0  0  0  0  0  0  0  0  0
    2.7020   -7.7290   -3.4180 C   0  0  0  0  0  2  0  0  0  0  0  0
    3.3740   -8.0940   -4.5320 N   0  0  0  0  0  0  0  0  0  0  0  0
    3.5930   -9.0780   -4.6860 H   0  0  0  0  0  0  0  0  0  0  0  0
    3.7630   -7.1720   -5.4470 C   0  0  0  0  0  3  0  0  0  0  0  0
    3.4810   -5.8060   -5.2610 C   0  0  0  0  0  0  0  0  0  0  0  0
    2.4010   -4.1020   -3.7740 N   0  0  0  0  0  0  0  0  0  0  0  0
    2.6930   -3.3290   -4.3710 H   0  0  0  0  0  0  0  0  0  0  0  0
    1.6010   -3.7770   -2.6120 C   0  0  0  0  0  2  0  0  0  0  0  0
    1.3740   -2.2580   -2.5430 C   0  0  2  0  0  3  0  0  0  0  0  0
    0.6260   -1.8460   -1.2790 C   0  0  0  0  0  2  0  0  0  0  0  0
    0.5540   -0.4380   -1.2480 O   0  0  0  0  0  0  0  0  0  0  0  0
   -0.1070   -0.0270   -0.0750 C   0  0  0  0  0  2  0  0  0  0  0  0
   -0.1380    1.4930   -0.0470 C   0  0  0  0  0  1  0  0  0  0  0  0
    0.7000   -1.7970   -3.6900 O   0  0  0  0  0  0  0  0  0  0  0  0
   -0.1740   -2.2690   -3.7380 H   0  0  0  0  0  0  0  0  0  0  0  0
    3.9480   -4.8540   -6.3290 C   0  0  0  0  0  3  0  0  0  0  0  0
    4.5450   -5.3410   -7.4350 O   0  0  0  0  0  0  0  0  0  0  0  0
    4.8400   -4.7560   -8.1050 H   0  0  0  0  0  0  0  0  0  0  0  0
    3.8040   -3.5220   -6.2330 O   0  0  0  0  0  0  0  0  0  0  0  0
    3.3930   -3.1490   -5.4780 H   0  0  0  0  0  0  0  0  0  0  0  0
  1  9  1  6  0  0  0
  1  2  1  0  0  0  0
  2  3  1  0  0  0  0
  4  2  1  0  0  0  0
  5  4  1  0  0  0  0
  6  5  1  0  0  0  0
  7  8  2  0  0  0  0
  7  5  1  0  0  0  0
  8  1  1  0  0  0  0
  9 11  1  0  0  0  0
 10  9  1  0  0  0  0
 12 11  1  6  0  0  0
 12 13  1  0  0  0  0
 13 14  1  0  0  0  0
 14 15  1  0  0  0  0
 15 16  1  0  0  0  0
 17 12  1  0  0  0  0
 18 17  1  0  0  0  0
 19 22  1  0  0  0  0
 19  8  1  0  0  0  0
 20 19  1  0  0  0  0
 21 20  1  0  0  0  0
 22 23  1  0  0  0  0
M  END
>  <REMARK>
  10 active torsions:
  status: ('A' for Active; 'I' for Inactive)
    1  A    between atoms: C_2  and  O_3 
    2  A    between atoms: O_3  and  C_4 
    3  A    between atoms: C_4  and  C_5 
    4  A    between atoms: C_5  and  O_6 
    5  A    between atoms: C_5  and  C_7 
    6  A    between atoms: C_7  and  N_8 
    7  A    between atoms: N_8  and  C_9 
    8  A    between atoms: C_16  and  C_17 
    9  A    between atoms: C_17  and  O_18 
   10  A    between atoms: C_17  and  O_19 

>  <TORSDO>
F 10

$$$$
C:\Users\siddh\.mgltools\PyRx\Ligands\ZINC000095347889_uff_E=187.67.pdbqt
 OpenBabel04182118313D

 19 19  0  0  0  0  0  0  0  0999 V2000
    0.6770   -2.0360   -1.1520 C   0  0  0  0  0  0  0  0  0  0  0  0
    1.3000   -2.6770   -2.2350 C   0  0  0  0  0  3  0  0  0  0  0  0
    1.3500   -4.0340   -2.3000 N   0  0  0  0  0  0  0  0  0  0  0  0
    0.7980   -4.8160   -1.3180 C   0  0  0  0  0  0  0  0  0  0  0  0
    0.8590   -6.0310   -1.4070 O   0  0  0  0  0  0  0  0  0  0  0  0
    0.1680   -4.2180   -0.2180 C   0  0  0  0  0  0  0  0  0  0  0  0
    0.1080   -2.8220   -0.1380 C   0  0  0  0  0  3  0  0  0  0  0  0
    1.8200   -4.4830   -3.1180 H   0  0  0  0  0  0  0  0  0  0  0  0
   -0.5670   -5.2450    1.0870 S   0  0  0  0  0  0  0  0  0  0  0  0
    0.6020   -6.4100    1.5920 O   0  0  0  0  0  0  0  0  0  0  0  0
    1.3790   -5.9550    1.9520 H   0  0  0  0  0  0  0  0  0  0  0  0
   -1.0120   -4.2460    2.4220 O   0  0  0  0  0  0  0  0  0  0  0  0
   -0.2220   -3.8090    2.7770 H   0  0  0  0  0  0  0  0  0  0  0  0
   -1.9620   -6.0300    0.4420 O   0  0  0  0  0  0  0  0  0  0  0  0
   -1.7020   -6.5890   -0.3070 H   0  0  0  0  0  0  0  0  0  0  0  0
    0.6290   -0.5550   -1.0960 C   0  0  0  0  0  0  0  0  0  0  0  0
    1.1340    0.1010   -1.9990 O   0  0  0  0  0  0  0  0  0  0  0  0
    0.0310    0.0750   -0.0520 O   0  0  0  0  0  0  0  0  0  0  0  0
   -0.0330    1.4510    0.0370 C   0  0  0  0  0  1  0  0  0  0  0  0
  1 16  1  0  0  0  0
  1  7  1  0  0  0  0
  2  1  2  0  0  0  0
  3  2  1  0  0  0  0
  3  4  1  0  0  0  0
  4  6  1  0  0  0  0
  5  4  2  0  0  0  0
  6  7  2  0  0  0  0
  6  9  1  0  0  0  0
  8  3  1  0  0  0  0
  9 10  1  0  0  0  0
  9 12  1  0  0  0  0
 10 11  1  0  0  0  0
 12 13  1  0  0  0  0
 14  9  1  0  0  0  0
 15 14  1  0  0  0  0
 16 18  1  0  0  0  0
 17 16  2  0  0  0  0
 18 19  1  0  0  0  0
M  END
>  <REMARK>
  6 active torsions:
  status: ('A' for Active; 'I' for Inactive)
    1  A    between atoms: O_2  and  C_3 
    2  A    between atoms: C_3  and  C_5 
    3  A    between atoms: C_10  and  S_11 
    4  A    between atoms: S_11  and  O_12 
    5  A    between atoms: S_11  and  O_13 
    6  A    between atoms: S_11  and  O_14 

>  <TORSDO>
F 6

$$$$
C:\Users\siddh\.mgltools\PyRx\Ligands\ZINC000095257904_uff_E=575.32.pdbqt
 OpenBabel04182118313D

 21 22  0  0  1  0  0  0  0  0999 V2000
    2.1190   -0.0940   -1.2680 N   0  0  0  0  0  0  0  0  0  0  0  0
    2.5300    1.1030   -1.7810 C   0  0  0  0  0  0  0  0  0  0  0  0
    1.7320    1.8280   -2.3560 O   0  0  0  0  0  0  0  0  0  0  0  0
    2.7870   -0.6610   -0.7270 H   0  0  0  0  0  0  0  0  0  0  0  0
    0.7210   -0.5080   -1.2750 C   0  0  2  0  0  3  0  0  0  0  0  0
    0.0080   -0.0200    0.0060 C   0  0  0  0  0  2  0  0  0  0  0  0
   -0.0660    1.5050    0.1100 C   0  0  0  0  0  1  0  0  0  0  0  0
    0.6370   -2.0070   -1.3480 C   0  0  2  0  0  3  0  0  0  0  0  0
   -0.0060   -2.6970   -2.3060 N   0  0  0  0  0  0  0  0  0  0  0  0
    0.1460   -3.9720   -1.9890 N   0  0  0  0  0  0  0  0  0  0  0  0
   -0.4890   -2.3300   -3.0810 H   0  0  0  0  0  0  0  0  0  0  0  0
    0.8590   -4.0660   -0.8740 N   0  0  0  0  0  0  0  0  0  0  0  0
    1.1770   -2.8550   -0.4530 N   0  0  0  0  0  0  0  0  0  0  0  0
    1.7170   -2.6130    0.3780 H   0  0  0  0  0  0  0  0  0  0  0  0
    3.9300    1.5720   -1.5800 C   0  0  1  0  0  3  0  0  0  0  0  0
    4.3840    2.8230   -1.8270 N   0  0  0  0  0  0  0  0  0  0  0  0
    5.6630    2.9010   -1.4930 N   0  0  0  0  0  0  0  0  0  0  0  0
    3.6290    3.9610   -2.3430 C   0  0  0  0  0  1  0  0  0  0  0  0
    6.0510    1.6970   -1.0290 C   0  0  0  0  0  3  0  0  0  0  0  0
    6.2520    3.7290   -1.5720 H   0  0  0  0  0  0  0  0  0  0  0  0
    4.9780    0.8290   -1.0650 C   0  0  0  0  0  3  0  0  0  0  0  0
  1  4  1  0  0  0  0
  2  1  1  0  0  0  0
  3  2  2  0  0  0  0
  5  1  1  0  0  0  0
  5  6  1  1  0  0  0
  6  7  1  0  0  0  0
  8  5  1  1  0  0  0
  8 13  1  0  0  0  0
  9 10  1  0  0  0  0
  9  8  1  0  0  0  0
 10 12  2  0  0  0  0
 11  9  1  0  0  0  0
 12 13  1  0  0  0  0
 13 14  1  0  0  0  0
 15  2  1  1  0  0  0
 15 21  1  0  0  0  0
 16 15  1  0  0  0  0
 16 17  1  0  0  0  0
 17 19  1  0  0  0  0
 18 16  1  0  0  0  0
 20 17  1  0  0  0  0
 21 19  2  0  0  0  0
M  END
>  <REMARK>
  4 active torsions:
  status: ('A' for Active; 'I' for Inactive)
    1  A    between atoms: C_2  and  C_3 
    2  A    between atoms: C_3  and  N_4 
    3  A    between atoms: C_3  and  C_14 
       I    between atoms: N_4  and  C_5 
    4  A    between atoms: C_5  and  C_7 

>  <TORSDO>
F 4

$$$$
C:\Users\siddh\.mgltools\PyRx\Ligands\ZINC000095257903_uff_E=572.00.pdbqt
 OpenBabel04182118313D

 21 22  0  0  1  0  0  0  0  0999 V2000
   -0.0170   -0.1050   -2.4490 N   0  0  0  0  0  0  0  0  0  0  0  0
    0.1710    1.1060   -3.0510 C   0  0  0  0  0  0  0  0  0  0  0  0
    0.9610    1.9080   -2.5740 O   0  0  0  0  0  0  0  0  0  0  0  0
   -0.6450   -0.7930   -2.8880 H   0  0  0  0  0  0  0  0  0  0  0  0
    0.6860   -0.4920   -1.2290 C   0  0  1  0  0  3  0  0  0  0  0  0
   -0.0540    0.0020    0.0340 C   0  0  0  0  0  2  0  0  0  0  0  0
   -0.1360    1.5240    0.1470 C   0  0  0  0  0  1  0  0  0  0  0  0
    0.8170   -1.9910   -1.1740 C   0  0  1  0  0  3  0  0  0  0  0  0
    1.9850   -2.6550   -1.1160 N   0  0  0  0  0  0  0  0  0  0  0  0
    1.6630   -3.9370   -1.0830 N   0  0  0  0  0  0  0  0  0  0  0  0
    2.8900   -2.2680   -1.1030 H   0  0  0  0  0  0  0  0  0  0  0  0
    0.3430   -4.0610   -1.1200 N   0  0  0  0  0  0  0  0  0  0  0  0
   -0.2090   -2.8610   -1.1750 N   0  0  0  0  0  0  0  0  0  0  0  0
   -1.2040   -2.6410   -1.2120 H   0  0  0  0  0  0  0  0  0  0  0  0
   -0.5590    1.4610   -4.3010 C   0  0  1  0  0  3  0  0  0  0  0  0
   -0.4160    2.6150   -4.9940 N   0  0  0  0  0  0  0  0  0  0  0  0
   -1.1980    2.5860   -6.0620 N   0  0  0  0  0  0  0  0  0  0  0  0
    0.4390    3.7530   -4.6700 C   0  0  0  0  0  1  0  0  0  0  0  0
   -1.8620    1.4140   -6.0660 C   0  0  0  0  0  3  0  0  0  0  0  0
   -1.2820    3.3230   -6.7620 H   0  0  0  0  0  0  0  0  0  0  0  0
   -1.4850    0.6740   -4.9640 C   0  0  0  0  0  3  0  0  0  0  0  0
  1  5  1  0  0  0  0
  2  3  2  0  0  0  0
  2  1  1  0  0  0  0
  4  1  1  0  0  0  0
  5  6  1  1  0  0  0
  6  7  1  0  0  0  0
  8  5  1  1  0  0  0
  8  9  1  0  0  0  0
  9 11  1  0  0  0  0
  9 10  1  0  0  0  0
 12 10  2  0  0  0  0
 13  8  1  0  0  0  0
 13 12  1  0  0  0  0
 14 13  1  0  0  0  0
 15  2  1  6  0  0  0
 16 18  1  0  0  0  0
 16 15  1  0  0  0  0
 17 16  1  0  0  0  0
 19 17  1  0  0  0  0
 19 21  2  0  0  0  0
 20 17  1  0  0  0  0
 21 15  1  0  0  0  0
M  END
>  <REMARK>
  4 active torsions:
  status: ('A' for Active; 'I' for Inactive)
    1  A    between atoms: C_2  and  C_3 
    2  A    between atoms: C_3  and  N_4 
    3  A    between atoms: C_3  and  C_14 
       I    between atoms: N_4  and  C_5 
    4  A    between atoms: C_5  and  C_7 

>  <TORSDO>
F 4

$$$$
C:\Users\siddh\.mgltools\PyRx\Ligands\ZINC000095251536_uff_E=376.95.pdbqt
 OpenBabel04182118313D

 19 20  0  0  1  0  0  0  0  0999 V2000
    0.1110   -0.0270   -0.0170 O   0  0  0  0  0  0  0  0  0  0  0  0
    0.0540    1.1960    0.0040 C   0  0  0  0  0  0  0  0  0  0  0  0
   -1.1530    1.8370   -0.0060 N   0  0  0  0  0  0  0  0  0  0  0  0
   -1.1660    2.8690    0.0120 H   0  0  0  0  0  0  0  0  0  0  0  0
    1.3310    1.9930    0.0170 C   0  0  0  0  0  2  0  0  0  0  0  0
    2.5270    1.0900   -0.0080 C   0  0  2  0  0  3  0  0  0  0  0  0
    3.0670    0.5690   -1.1240 N   0  0  0  0  0  0  0  0  0  0  0  0
    3.9960   -0.2740   -0.7070 N   0  0  0  0  0  0  0  0  0  0  0  0
    2.8220    0.7730   -2.0550 H   0  0  0  0  0  0  0  0  0  0  0  0
    4.0110   -0.2920    0.6190 N   0  0  0  0  0  0  0  0  0  0  0  0
    3.0920    0.5390    1.0800 N   0  0  0  0  0  0  0  0  0  0  0  0
    2.8610    0.7240    2.0560 H   0  0  0  0  0  0  0  0  0  0  0  0
   -2.3960    1.1360   -0.0800 C   0  0  2  0  0  3  0  0  0  0  0  0
   -2.4200   -0.2270   -0.0930 N   0  0  0  0  0  0  0  0  0  0  0  0
   -3.5720   -0.9330   -0.1910 C   0  0  0  0  0  3  0  0  0  0  0  0
   -1.5380   -0.7340   -0.0280 H   0  0  0  0  0  0  0  0  0  0  0  0
   -4.7900   -0.2650   -0.2860 C   0  0  0  0  0  3  0  0  0  0  0  0
   -4.8070    1.1320   -0.2720 C   0  0  0  0  0  3  0  0  0  0  0  0
   -3.6060    1.8420   -0.1670 C   0  0  0  0  0  3  0  0  0  0  0  0
  1  2  2  0  0  0  0
  2  5  1  0  0  0  0
  3  2  1  0  0  0  0
  3  4  1  0  0  0  0
  6  5  1  6  0  0  0
  6 11  1  0  0  0  0
  7  8  1  0  0  0  0
  7  6  1  0  0  0  0
  8 10  2  0  0  0  0
  9  7  1  0  0  0  0
 10 11  1  0  0  0  0
 11 12  1  0  0  0  0
 13  3  1  6  0  0  0
 14 13  1  0  0  0  0
 14 16  1  0  0  0  0
 15 14  1  0  0  0  0
 17 18  1  0  0  0  0
 17 15  2  0  0  0  0
 18 19  2  0  0  0  0
 19 13  1  0  0  0  0
M  END
>  <REMARK>
  3 active torsions:
  status: ('A' for Active; 'I' for Inactive)
    1  A    between atoms: C_2  and  C_3 
       I    between atoms: C_2  and  N_10 
    2  A    between atoms: C_3  and  C_4 
    3  A    between atoms: N_10  and  C_11 

>  <TORSDO>
F 3

$$$$
C:\Users\siddh\.mgltools\PyRx\Ligands\ZINC000095160884_uff_E=439.99.pdbqt
 OpenBabel04182118313D

 18 19  0  0  1  0  0  0  0  0999 V2000
   -0.0320    1.5430    0.0260 C   0  0  0  0  0  1  0  0  0  0  0  0
   -0.0180    0.0170    0.0090 C   0  0  2  0  0  3  0  0  0  0  0  0
   -1.4580   -0.5350    0.0590 C   0  0  0  0  0  2  0  0  0  0  0  0
   -1.4000   -1.9840    0.2060 N   0  0  0  0  0  0  0  0  0  0  0  0
   -2.0640   -2.8230   -0.6570 C   0  0  0  0  0  0  0  0  0  0  0  0
   -2.7230   -2.3530   -1.5760 O   0  0  0  0  0  0  0  0  0  0  0  0
   -0.5900   -2.4730    1.3120 C   0  0  0  0  0  2  0  0  0  0  0  0
    0.8160   -1.8720    1.1710 C   0  0  1  0  0  3  0  0  0  0  0  0
    1.5910   -2.4720   -0.0180 C   0  0  0  0  0  1  0  0  0  0  0  0
    0.7480   -0.4470    1.1170 O   0  0  0  0  0  0  0  0  0  0  0  0
   -2.0240   -4.3310   -0.4820 C   0  0  0  0  0  2  0  0  0  0  0  0
   -2.8550   -5.0450   -1.4980 C   0  0  2  0  0  3  0  0  0  0  0  0
   -2.4200   -5.4430   -2.7050 N   0  0  0  0  0  0  0  0  0  0  0  0
   -3.4710   -5.9800   -3.3000 N   0  0  0  0  0  0  0  0  0  0  0  0
   -1.5100   -5.3540   -3.0690 H   0  0  0  0  0  0  0  0  0  0  0  0
   -4.5200   -5.9080   -2.4910 N   0  0  0  0  0  0  0  0  0  0  0  0
   -4.1630   -5.3230   -1.3610 N   0  0  0  0  0  0  0  0  0  0  0  0
   -4.7550   -5.1250   -0.5550 H   0  0  0  0  0  0  0  0  0  0  0  0
  2  1  1  1  0  0  0
  2  3  1  0  0  0  0
  2 10  1  0  0  0  0
  3  4  1  0  0  0  0
  4  7  1  0  0  0  0
  5 11  1  0  0  0  0
  5  4  1  0  0  0  0
  6  5  2  0  0  0  0
  8  9  1  6  0  0  0
  8  7  1  0  0  0  0
 10  8  1  0  0  0  0
 12 17  1  0  0  0  0
 12 11  1  6  0  0  0
 13 12  1  0  0  0  0
 14 13  1  0  0  0  0
 14 16  2  0  0  0  0
 15 13  1  0  0  0  0
 16 17  1  0  0  0  0
 17 18  1  0  0  0  0
M  END
>  <REMARK>
  2 active torsions:
  status: ('A' for Active; 'I' for Inactive)
       I    between atoms: N_4  and  C_5 
    1  A    between atoms: C_5  and  C_7 
    2  A    between atoms: C_7  and  C_8 

>  <TORSDO>
F 2

$$$$
C:\Users\siddh\.mgltools\PyRx\Ligands\ZINC000095160883_uff_E=438.81.pdbqt
 OpenBabel04182118313D

 18 19  0  0  1  0  0  0  0  0999 V2000
   -0.0950    1.5740   -0.0230 C   0  0  0  0  0  1  0  0  0  0  0  0
    0.0460    0.0410    0.0210 C   0  0  1  0  0  3  0  0  0  0  0  0
    0.7570   -0.5180   -1.2220 C   0  0  0  0  0  2  0  0  0  0  0  0
    2.1620   -0.1540   -1.1410 N   0  0  0  0  0  0  0  0  0  0  0  0
    2.7820    0.5380   -2.1550 C   0  0  0  0  0  0  0  0  0  0  0  0
    2.1470    0.8450   -3.1570 O   0  0  0  0  0  0  0  0  0  0  0  0
    2.8460   -0.5590    0.0800 C   0  0  0  0  0  2  0  0  0  0  0  0
    2.0510   -0.0210    1.2860 C   0  0  2  0  0  3  0  0  0  0  0  0
    2.6510   -0.5450    2.5890 C   0  0  0  0  0  1  0  0  0  0  0  0
    0.6840   -0.4160    1.2140 O   0  0  0  0  0  0  0  0  0  0  0  0
    4.2490    0.9150   -2.0770 C   0  0  0  0  0  2  0  0  0  0  0  0
    4.7270    1.6090   -3.3130 C   0  0  2  0  0  3  0  0  0  0  0  0
    4.6660    2.9340   -3.5240 N   0  0  0  0  0  0  0  0  0  0  0  0
    5.1490    3.1200   -4.7410 N   0  0  0  0  0  0  0  0  0  0  0  0
    4.3310    3.6220   -2.9040 H   0  0  0  0  0  0  0  0  0  0  0  0
    5.4890    1.9510   -5.2640 N   0  0  0  0  0  0  0  0  0  0  0  0
    5.2320    0.9890   -4.3930 N   0  0  0  0  0  0  0  0  0  0  0  0
    5.3850   -0.0120   -4.5150 H   0  0  0  0  0  0  0  0  0  0  0  0
  2  1  1  6  0  0  0
  2 10  1  0  0  0  0
  3  4  1  0  0  0  0
  3  2  1  0  0  0  0
  4  7  1  0  0  0  0
  5 11  1  0  0  0  0
  5  4  1  0  0  0  0
  6  5  2  0  0  0  0
  7  8  1  0  0  0  0
  8  9  1  1  0  0  0
 10  8  1  0  0  0  0
 12 11  1  6  0  0  0
 13 12  1  0  0  0  0
 13 15  1  0  0  0  0
 14 13  1  0  0  0  0
 16 14  2  0  0  0  0
 16 17  1  0  0  0  0
 17 12  1  0  0  0  0
 18 17  1  0  0  0  0
M  END
>  <REMARK>
  2 active torsions:
  status: ('A' for Active; 'I' for Inactive)
       I    between atoms: N_4  and  C_5 
    1  A    between atoms: C_5  and  C_7 
    2  A    between atoms: C_7  and  C_8 

>  <TORSDO>
F 2

$$$$
C:\Users\siddh\.mgltools\PyRx\Ligands\ZINC000091746962_uff_E=350.10.pdbqt
 OpenBabel04182118313D

 18 18  0  0  1  0  0  0  0  0999 V2000
   -1.4300   -0.5630   -0.0370 C   0  0  2  0  0  3  0  0  0  0  0  0
   -1.4650   -2.1060   -0.0850 C   0  0  0  0  0  2  0  0  0  0  0  0
   -2.5770   -2.3720   -0.9520 N   0  0  0  0  0  0  0  0  0  0  0  0
   -3.4960   -3.3630   -0.7460 C   0  0  0  0  0  0  0  0  0  0  0  0
   -3.3740   -4.1140    0.2140 O   0  0  0  0  0  0  0  0  0  0  0  0
   -2.6200   -1.4140   -2.0200 C   0  0  0  0  0  2  0  0  0  0  0  0
   -2.2470   -0.1080   -1.3050 C   0  0  1  0  0  3  0  0  0  0  0  0
   -4.6350   -3.5850   -1.7120 C   0  0  0  0  0  2  0  0  0  0  0  0
   -5.3970   -4.6970   -1.3280 O   0  0  0  0  0  0  0  0  0  0  0  0
   -6.1050   -4.7960   -2.0170 H   0  0  0  0  0  0  0  0  0  0  0  0
    0.0120    0.0130    0.0320 C   0  0  0  0  0  3  0  0  0  0  0  0
    0.0130    1.5510    0.0570 C   0  0  0  0  0  1  0  0  0  0  0  0
    0.7640   -0.5050    1.2680 C   0  0  0  0  0  1  0  0  0  0  0  0
   -3.4550    0.6990   -0.8720 C   0  0  0  0  0  3  0  0  0  0  0  0
   -4.7070    0.2730   -1.1290 O   0  0  0  0  0  0  0  0  0  0  0  0
   -5.4420    0.7850   -0.8540 H   0  0  0  0  0  0  0  0  0  0  0  0
   -3.2760    1.8690   -0.2280 O   0  0  0  0  0  0  0  0  0  0  0  0
   -2.4100    2.1750   -0.0440 H   0  0  0  0  0  0  0  0  0  0  0  0
  1 11  1  6  0  0  0
  2  1  1  0  0  0  0
  3  4  1  0  0  0  0
  3  2  1  0  0  0  0
  4  5  2  0  0  0  0
  6  7  1  0  0  0  0
  6  3  1  0  0  0  0
  7 14  1  1  0  0  0
  7  1  1  0  0  0  0
  8  9  1  0  0  0  0
  8  4  1  0  0  0  0
 10  9  1  0  0  0  0
 11 12  1  0  0  0  0
 11 13  1  0  0  0  0
 14 17  1  0  0  0  0
 15 14  1  0  0  0  0
 15 16  1  0  0  0  0
 17 18  1  0  0  0  0
M  END
>  <REMARK>
  6 active torsions:
  status: ('A' for Active; 'I' for Inactive)
    1  A    between atoms: C_2  and  C_4 
       I    between atoms: N_6  and  C_7 
    2  A    between atoms: C_7  and  C_9 
    3  A    between atoms: C_9  and  O_10 
    4  A    between atoms: C_12  and  C_13 
    5  A    between atoms: C_13  and  O_14 
    6  A    between atoms: C_13  and  O_15 

>  <TORSDO>
F 6

$$$$
C:\Users\siddh\.mgltools\PyRx\Ligands\ZINC000091292857_uff_E=269.98.pdbqt
 OpenBabel04182118313D

 19 20  0  0  1  0  0  0  0  0999 V2000
    0.1430   -0.1030   -0.0290 O   0  0  0  0  0  0  0  0  0  0  0  0
    0.0360    1.2400    0.0200 C   0  0  0  0  0  3  0  0  0  0  0  0
    0.3440   -1.0140   -0.1200 H   0  0  0  0  0  0  0  0  0  0  0  0
    1.1520    1.9920    0.0410 O   0  0  0  0  0  0  0  0  0  0  0  0
    1.0870    2.9260    0.0750 H   0  0  0  0  0  0  0  0  0  0  0  0
   -1.3120    1.9130    0.0550 C   0  0  0  0  0  2  0  0  0  0  0  0
   -2.4800    0.9140   -0.0020 C   0  0  2  0  0  3  0  0  0  0  0  0
   -2.4070    0.1940   -1.2260 O   0  0  0  0  0  0  0  0  0  0  0  0
   -3.4140   -0.8020   -1.2720 C   0  0  0  0  0  2  0  0  0  0  0  0
   -4.8010   -0.1570   -1.2680 C   0  0  0  0  0  2  0  0  0  0  0  0
   -4.8980    0.6820   -0.0850 N   0  0  0  0  0  0  0  0  0  0  0  0
   -3.8260    1.6580    0.0860 C   0  0  0  0  0  2  0  0  0  0  0  0
   -5.9120    0.5710    0.8410 C   0  0  0  0  0  0  0  0  0  0  0  0
   -5.8880    1.2610    1.8500 O   0  0  0  0  0  0  0  0  0  0  0  0
   -7.1140   -0.3440    0.6410 C   0  0  1  0  0  3  0  0  0  0  0  0
   -7.9850   -0.2590    1.7640 O   0  0  0  0  0  0  0  0  0  0  0  0
   -9.2620    0.0740    1.2610 C   0  0  0  0  0  2  0  0  0  0  0  0
   -9.2880   -0.3810   -0.1800 C   0  0  0  0  0  2  0  0  0  0  0  0
   -7.9320    0.0810   -0.5880 C   0  0  0  0  0  2  0  0  0  0  0  0
  1  2  1  0  0  0  0
  2  4  1  0  0  0  0
  2  6  1  0  0  0  0
  3  1  1  0  0  0  0
  4  5  1  0  0  0  0
  7  6  1  6  0  0  0
  7 12  1  0  0  0  0
  8  7  1  0  0  0  0
  9 10  1  0  0  0  0
  9  8  1  0  0  0  0
 10 11  1  0  0  0  0
 11 12  1  0  0  0  0
 11 13  1  0  0  0  0
 13 14  2  0  0  0  0
 15 13  1  1  0  0  0
 15 16  1  0  0  0  0
 17 16  1  0  0  0  0
 18 17  1  0  0  0  0
 19 18  1  0  0  0  0
 19 15  1  0  0  0  0
M  END
>  <REMARK>
  4 active torsions:
  status: ('A' for Active; 'I' for Inactive)
    1  A    between atoms: C_2  and  O_3 
    2  A    between atoms: C_2  and  C_4 
    3  A    between atoms: C_4  and  C_5 
       I    between atoms: N_7  and  C_8 
    4  A    between atoms: C_8  and  C_10 

>  <TORSDO>
F 4

$$$$
C:\Users\siddh\.mgltools\PyRx\Ligands\ZINC000091292855_uff_E=268.27.pdbqt
 OpenBabel04182118313D

 19 20  0  0  1  0  0  0  0  0999 V2000
    0.1180   -0.1160    0.0250 O   0  0  0  0  0  0  0  0  0  0  0  0
    0.0190    1.2280   -0.0080 C   0  0  0  0  0  3  0  0  0  0  0  0
    0.3050   -1.0320    0.0860 H   0  0  0  0  0  0  0  0  0  0  0  0
    1.1390    1.9730   -0.0350 O   0  0  0  0  0  0  0  0  0  0  0  0
    1.0800    2.9080   -0.0580 H   0  0  0  0  0  0  0  0  0  0  0  0
   -1.3250    1.9100   -0.0160 C   0  0  0  0  0  2  0  0  0  0  0  0
   -2.5080    0.9270    0.0500 C   0  0  1  0  0  3  0  0  0  0  0  0
   -2.4200    0.1830    1.2600 O   0  0  0  0  0  0  0  0  0  0  0  0
   -3.4630   -0.7770    1.3360 C   0  0  0  0  0  2  0  0  0  0  0  0
   -4.8230   -0.0760    1.3780 C   0  0  0  0  0  2  0  0  0  0  0  0
   -4.9240    0.7420    0.1830 N   0  0  0  0  0  0  0  0  0  0  0  0
   -3.8430    1.7030   -0.0040 C   0  0  0  0  0  2  0  0  0  0  0  0
   -5.9360    0.6190   -0.7440 C   0  0  0  0  0  0  0  0  0  0  0  0
   -5.9700    1.3780   -1.7010 O   0  0  0  0  0  0  0  0  0  0  0  0
   -7.0310   -0.4380   -0.6470 C   0  0  1  0  0  3  0  0  0  0  0  0
   -7.9910   -0.2300   -1.6770 O   0  0  0  0  0  0  0  0  0  0  0  0
   -8.1100   -1.4500   -2.3760 C   0  0  0  0  0  2  0  0  0  0  0  0
   -7.6660   -2.5350   -1.4230 C   0  0  0  0  0  2  0  0  0  0  0  0
   -6.4720   -1.8560   -0.8390 C   0  0  0  0  0  2  0  0  0  0  0  0
  1  3  1  0  0  0  0
  2  1  1  0  0  0  0
  4  2  1  0  0  0  0
  5  4  1  0  0  0  0
  6  2  1  0  0  0  0
  7  6  1  1  0  0  0
  7  8  1  0  0  0  0
  8  9  1  0  0  0  0
  9 10  1  0  0  0  0
 11 10  1  0  0  0  0
 12  7  1  0  0  0  0
 12 11  1  0  0  0  0
 13 11  1  0  0  0  0
 14 13  2  0  0  0  0
 15 13  1  6  0  0  0
 16 15  1  0  0  0  0
 17 16  1  0  0  0  0
 17 18  1  0  0  0  0
 18 19  1  0  0  0  0
 19 15  1  0  0  0  0
M  END
>  <REMARK>
  4 active torsions:
  status: ('A' for Active; 'I' for Inactive)
    1  A    between atoms: C_2  and  O_3 
    2  A    between atoms: C_2  and  C_4 
    3  A    between atoms: C_4  and  C_5 
       I    between atoms: N_7  and  C_8 
    4  A    between atoms: C_8  and  C_10 

>  <TORSDO>
F 4

$$$$
C:\Users\siddh\.mgltools\PyRx\Ligands\ZINC000090275528_uff_E=121.13.pdbqt
 OpenBabel04182118313D

 22 22  0  0  1  0  0  0  0  0999 V2000
   -0.0100   -2.7190    2.4720 C   0  0  0  0  0  0  0  0  0  0  0  0
    0.0630   -3.9390    2.5180 O   0  0  0  0  0  0  0  0  0  0  0  0
   -0.0360   -1.9920    3.6250 N   0  0  0  0  0  0  0  0  0  0  0  0
   -0.1120   -0.9670    3.5690 H   0  0  0  0  0  0  0  0  0  0  0  0
    0.0640   -2.6280    4.9300 C   0  0  0  0  0  2  0  0  0  0  0  0
    0.0560   -1.5950    6.0910 C   0  0  1  0  0  0  0  0  0  0  0  0
    1.2640   -0.6430    5.9920 C   0  0  0  0  0  1  0  0  0  0  0  0
   -1.1180   -0.8190    6.0420 O   0  0  0  0  0  0  0  0  0  0  0  0
   -1.8970   -1.4370    6.0690 H   0  0  0  0  0  0  0  0  0  0  0  0
    0.1450   -2.3250    7.4180 C   0  0  0  0  0  3  0  0  0  0  0  0
    1.2060   -3.1120    7.6870 O   0  0  0  0  0  0  0  0  0  0  0  0
    1.2590   -3.5620    8.5080 H   0  0  0  0  0  0  0  0  0  0  0  0
   -0.8270   -2.1870    8.3410 O   0  0  0  0  0  0  0  0  0  0  0  0
   -1.5680   -1.6420    8.1640 H   0  0  0  0  0  0  0  0  0  0  0  0
   -0.0280   -2.0290    1.1560 C   0  0  2  0  0  3  0  0  0  0  0  0
    0.0350   -2.7560   -0.0450 C   0  0  0  0  0  3  0  0  0  0  0  0
    0.0710   -2.0700   -1.2610 C   0  0  0  0  0  3  0  0  0  0  0  0
    0.0480   -0.6750   -1.2740 C   0  0  0  0  0  3  0  0  0  0  0  0
   -0.0270    0.0200   -0.0620 C   0  0  0  0  0  0  0  0  0  0  0  0
   -0.0490    1.5150   -0.0440 C   0  0  0  0  0  1  0  0  0  0  0  0
   -0.0650   -0.6680    1.1100 N   0  0  0  0  0  0  0  0  0  0  0  0
   -0.1240   -0.1480    1.9860 H   0  0  0  0  0  0  0  0  0  0  0  0
  1  2  2  0  0  0  0
  1  3  1  0  0  0  0
  3  5  1  0  0  0  0
  4  3  1  0  0  0  0
  5  6  1  0  0  0  0
  6  7  1  6  0  0  0
  6 10  1  0  0  0  0
  8  9  1  0  0  0  0
  8  6  1  0  0  0  0
 10 11  1  0  0  0  0
 10 13  1  0  0  0  0
 11 12  1  0  0  0  0
 14 13  1  0  0  0  0
 15  1  1  1  0  0  0
 16 15  1  0  0  0  0
 17 16  2  0  0  0  0
 18 17  1  0  0  0  0
 18 19  2  0  0  0  0
 19 20  1  0  0  0  0
 19 21  1  0  0  0  0
 21 15  1  0  0  0  0
 21 22  1  0  0  0  0
M  END
>  <REMARK>
  7 active torsions:
  status: ('A' for Active; 'I' for Inactive)
    1  A    between atoms: C_6  and  C_7 
       I    between atoms: C_7  and  N_9 
    2  A    between atoms: N_9  and  C_10 
    3  A    between atoms: C_10  and  C_11 
    4  A    between atoms: C_11  and  O_13 
    5  A    between atoms: C_11  and  C_14 
    6  A    between atoms: C_14  and  O_15 
    7  A    between atoms: C_14  and  O_16 

>  <TORSDO>
F 7

$$$$
C:\Users\siddh\.mgltools\PyRx\Ligands\ZINC000090275527_uff_E=148.08.pdbqt
 OpenBabel04182118313D

 22 22  0  0  1  0  0  0  0  0999 V2000
    0.0600   -2.7220    2.4830 C   0  0  0  0  0  0  0  0  0  0  0  0
    0.0600   -3.9440    2.5260 O   0  0  0  0  0  0  0  0  0  0  0  0
    0.0760   -1.9990    3.6290 N   0  0  0  0  0  0  0  0  0  0  0  0
    0.0880   -0.9710    3.5690 H   0  0  0  0  0  0  0  0  0  0  0  0
    0.0770   -2.6400    4.9260 C   0  0  0  0  0  2  0  0  0  0  0  0
    0.0670   -1.5960    6.0610 C   0  0  2  0  0  0  0  0  0  0  0  0
   -1.2110   -0.7430    5.9780 C   0  0  0  0  0  1  0  0  0  0  0  0
    1.1830   -0.7410    5.9470 O   0  0  0  0  0  0  0  0  0  0  0  0
    2.0080   -1.2940    5.9930 H   0  0  0  0  0  0  0  0  0  0  0  0
    0.0810   -2.3100    7.3940 C   0  0  0  0  0  3  0  0  0  0  0  0
    1.0830   -2.1050    8.2700 O   0  0  0  0  0  0  0  0  0  0  0  0
    1.0840   -2.5510    9.0940 H   0  0  0  0  0  0  0  0  0  0  0  0
   -0.9140   -3.1610    7.7130 O   0  0  0  0  0  0  0  0  0  0  0  0
   -1.6160   -3.3100    7.1090 H   0  0  0  0  0  0  0  0  0  0  0  0
    0.0400   -2.0270    1.1830 C   0  0  1  0  0  3  0  0  0  0  0  0
    0.0400   -2.7510   -0.0130 C   0  0  0  0  0  3  0  0  0  0  0  0
    0.0250   -2.0670   -1.2260 C   0  0  0  0  0  3  0  0  0  0  0  0
    0.0070   -0.6720   -1.2370 C   0  0  0  0  0  3  0  0  0  0  0  0
    0.0010    0.0240   -0.0240 C   0  0  0  0  0  0  0  0  0  0  0  0
   -0.0190    1.5150   -0.0000 C   0  0  0  0  0  1  0  0  0  0  0  0
    0.0200   -0.6650    1.1460 N   0  0  0  0  0  0  0  0  0  0  0  0
    0.0190   -0.1470    2.0240 H   0  0  0  0  0  0  0  0  0  0  0  0
  1  2  2  0  0  0  0
  1  3  1  0  0  0  0
  3  5  1  0  0  0  0
  4  3  1  0  0  0  0
  5  6  1  0  0  0  0
  6  7  1  6  0  0  0
  6 10  1  0  0  0  0
  8  9  1  0  0  0  0
  8  6  1  0  0  0  0
 10 13  1  0  0  0  0
 10 11  1  0  0  0  0
 11 12  1  0  0  0  0
 14 13  1  0  0  0  0
 15  1  1  1  0  0  0
 16 15  1  0  0  0  0
 17 16  2  0  0  0  0
 18 17  1  0  0  0  0
 18 19  2  0  0  0  0
 19 20  1  0  0  0  0
 19 21  1  0  0  0  0
 21 15  1  0  0  0  0
 21 22  1  0  0  0  0
M  END
>  <REMARK>
  7 active torsions:
  status: ('A' for Active; 'I' for Inactive)
    1  A    between atoms: C_6  and  C_7 
       I    between atoms: C_7  and  N_9 
    2  A    between atoms: N_9  and  C_10 
    3  A    between atoms: C_10  and  C_11 
    4  A    between atoms: C_11  and  O_13 
    5  A    between atoms: C_11  and  C_14 
    6  A    between atoms: C_14  and  O_15 
    7  A    between atoms: C_14  and  O_16 

>  <TORSDO>
F 7

$$$$
C:\Users\siddh\.mgltools\PyRx\Ligands\ZINC000089942295_uff_E=136.87.pdbqt
 OpenBabel04182118313D

 18 18  0  0  1  0  0  0  0  0999 V2000
   -5.6120    0.4100   -2.3410 N   0  0  0  0  0  0  0  0  0  0  0  0
   -6.3450   -0.6920   -2.5320 N   0  0  0  0  0  0  0  0  0  0  0  0
   -7.7000   -0.6980   -2.3290 C   0  0  0  0  0  0  0  0  0  0  0  0
   -8.3390   -1.7180   -2.5110 O   0  0  0  0  0  0  0  0  0  0  0  0
   -8.3400    0.4670   -1.9120 C   0  0  0  0  0  3  0  0  0  0  0  0
   -7.5860    1.6170   -1.7040 C   0  0  0  0  0  3  0  0  0  0  0  0
   -6.2100    1.5820   -1.9170 C   0  0  0  0  0  0  0  0  0  0  0  0
   -5.5450    2.5870   -1.7220 O   0  0  0  0  0  0  0  0  0  0  0  0
   -5.9010   -1.5200   -2.8250 H   0  0  0  0  0  0  0  0  0  0  0  0
   -4.1600    0.3350   -2.5370 C   0  0  0  0  0  2  0  0  0  0  0  0
   -3.4800   -0.0670   -1.2560 C   0  0  0  0  0  0  0  0  0  0  0  0
   -2.1250   -0.1620   -1.2120 N   0  0  0  0  0  0  0  0  0  0  0  0
   -1.5810    0.0610   -2.0610 H   0  0  0  0  0  0  0  0  0  0  0  0
   -4.1470   -0.2920   -0.2550 O   0  0  0  0  0  0  0  0  0  0  0  0
   -1.4250   -0.5450    0.0050 C   0  0  1  0  0  3  0  0  0  0  0  0
   -1.4160   -2.0680    0.1290 C   0  0  0  0  0  1  0  0  0  0  0  0
    0.0080    0.0060   -0.0020 C   0  0  0  0  0  2  0  0  0  0  0  0
   -0.0010    1.5340    0.0070 C   0  0  0  0  0  1  0  0  0  0  0  0
  1  7  1  0  0  0  0
  2  1  1  0  0  0  0
  2  3  1  0  0  0  0
  3  5  1  0  0  0  0
  4  3  2  0  0  0  0
  5  6  2  0  0  0  0
  7  8  2  0  0  0  0
  7  6  1  0  0  0  0
  9  2  1  0  0  0  0
 10  1  1  0  0  0  0
 10 11  1  0  0  0  0
 11 12  1  0  0  0  0
 11 14  2  0  0  0  0
 12 15  1  0  0  0  0
 13 12  1  0  0  0  0
 15 16  1  6  0  0  0
 17 15  1  0  0  0  0
 17 18  1  0  0  0  0
M  END
>  <REMARK>
  4 active torsions:
  status: ('A' for Active; 'I' for Inactive)
    1  A    between atoms: C_2  and  C_3 
    2  A    between atoms: C_3  and  N_5 
       I    between atoms: N_5  and  C_6 
    3  A    between atoms: C_6  and  C_8 
    4  A    between atoms: C_8  and  N_9 

>  <TORSDO>
F 4

$$$$
C:\Users\siddh\.mgltools\PyRx\Ligands\ZINC000088375338_uff_E=302.03.pdbqt
 OpenBabel04182118313D

 19 20  0  0  1  0  0  0  0  0999 V2000
   -1.3280    1.9240   -0.0340 C   0  0  2  0  0  3  0  0  0  0  0  0
   -1.9900    1.9530   -1.4280 C   0  0  0  0  0  2  0  0  0  0  0  0
   -3.1560    2.7580   -1.4220 O   0  0  0  0  0  0  0  0  0  0  0  0
   -2.8120    4.0980   -1.1200 C   0  0  0  0  0  2  0  0  0  0  0  0
   -2.2530    4.1900    0.3040 C   0  0  0  0  0  2  0  0  0  0  0  0
   -1.0830    3.3150    0.3950 N   0  0  0  0  0  0  0  0  0  0  0  0
    0.1360    3.7920    0.8530 C   0  0  0  0  0  0  0  0  0  0  0  0
    1.1040    3.0480    0.9280 O   0  0  0  0  0  0  0  0  0  0  0  0
   -0.1290    1.0010   -0.0940 C   0  0  0  0  0  3  0  0  0  0  0  0
   -0.0660   -0.0740    0.7140 O   0  0  0  0  0  0  0  0  0  0  0  0
    0.0070   -0.1850    1.6410 H   0  0  0  0  0  0  0  0  0  0  0  0
    0.8630    1.2270   -0.9800 O   0  0  0  0  0  0  0  0  0  0  0  0
    0.8260    1.9730   -1.5450 H   0  0  0  0  0  0  0  0  0  0  0  0
    0.3140    5.2290    1.3150 C   0  0  0  0  0  2  0  0  0  0  0  0
    1.7650    5.5660    1.6990 C   0  0  1  0  0  3  0  0  0  0  0  0
    2.6090    5.4400    0.5630 O   0  0  0  0  0  0  0  0  0  0  0  0
    3.3150    6.6570    0.4600 C   0  0  0  0  0  2  0  0  0  0  0  0
    3.3140    7.2710    1.8440 C   0  0  0  0  0  2  0  0  0  0  0  0
    1.8910    7.0000    2.2110 C   0  0  0  0  0  2  0  0  0  0  0  0
  1  9  1  6  0  0  0
  1  6  1  0  0  0  0
  2  3  1  0  0  0  0
  2  1  1  0  0  0  0
  3  4  1  0  0  0  0
  4  5  1  0  0  0  0
  5  6  1  0  0  0  0
  6  7  1  0  0  0  0
  7  8  2  0  0  0  0
  7 14  1  0  0  0  0
  9 10  1  0  0  0  0
 10 11  1  0  0  0  0
 12  9  1  0  0  0  0
 13 12  1  0  0  0  0
 15 14  1  6  0  0  0
 15 19  1  0  0  0  0
 16 15  1  0  0  0  0
 17 16  1  0  0  0  0
 17 18  1  0  0  0  0
 18 19  1  0  0  0  0
M  END
>  <REMARK>
  5 active torsions:
  status: ('A' for Active; 'I' for Inactive)
    1  A    between atoms: O_1  and  C_2 
    2  A    between atoms: C_2  and  O_3 
    3  A    between atoms: C_2  and  C_4 
       I    between atoms: N_9  and  C_10 
    4  A    between atoms: C_10  and  C_12 
    5  A    between atoms: C_12  and  C_13 

>  <TORSDO>
F 5

$$$$
C:\Users\siddh\.mgltools\PyRx\Ligands\ZINC000088375335_uff_E=302.56.pdbqt
 OpenBabel04182118313D

 19 20  0  0  1  0  0  0  0  0999 V2000
   -1.3230    1.9540   -0.0340 C   0  0  1  0  0  3  0  0  0  0  0  0
   -1.7810    2.3190   -1.4630 C   0  0  0  0  0  2  0  0  0  0  0  0
   -3.0830    2.8780   -1.4540 O   0  0  0  0  0  0  0  0  0  0  0  0
   -4.0130    1.9190   -0.9850 C   0  0  0  0  0  2  0  0  0  0  0  0
   -3.7100    1.5600    0.4690 C   0  0  0  0  0  2  0  0  0  0  0  0
   -2.3380    1.0560    0.5510 N   0  0  0  0  0  0  0  0  0  0  0  0
   -2.0540   -0.1590    1.1540 C   0  0  0  0  0  0  0  0  0  0  0  0
   -0.8950   -0.5210    1.3020 O   0  0  0  0  0  0  0  0  0  0  0  0
    0.0930    1.4240   -0.1170 C   0  0  0  0  0  3  0  0  0  0  0  0
    0.3750    0.3490   -0.8830 O   0  0  0  0  0  0  0  0  0  0  0  0
    0.6970    0.2450   -1.7570 H   0  0  0  0  0  0  0  0  0  0  0  0
    1.0860    2.0440    0.5470 O   0  0  0  0  0  0  0  0  0  0  0  0
    0.8980    2.7900    1.0810 H   0  0  0  0  0  0  0  0  0  0  0  0
   -3.1530   -1.0720    1.6720 C   0  0  0  0  0  2  0  0  0  0  0  0
   -2.6200   -2.2970    2.4330 C   0  0  1  0  0  3  0  0  0  0  0  0
   -1.9430   -1.8850    3.6120 O   0  0  0  0  0  0  0  0  0  0  0  0
   -2.5020   -2.6350    4.6700 C   0  0  0  0  0  2  0  0  0  0  0  0
   -3.1170   -3.8700    4.0440 C   0  0  0  0  0  2  0  0  0  0  0  0
   -3.7560   -3.2260    2.8570 C   0  0  0  0  0  2  0  0  0  0  0  0
  1  9  1  6  0  0  0
  1  6  1  0  0  0  0
  2  3  1  0  0  0  0
  2  1  1  0  0  0  0
  3  4  1  0  0  0  0
  4  5  1  0  0  0  0
  5  6  1  0  0  0  0
  6  7  1  0  0  0  0
  7  8  2  0  0  0  0
  7 14  1  0  0  0  0
  9 12  1  0  0  0  0
 10  9  1  0  0  0  0
 11 10  1  0  0  0  0
 12 13  1  0  0  0  0
 15 14  1  1  0  0  0
 15 19  1  0  0  0  0
 15 16  1  0  0  0  0
 16 17  1  0  0  0  0
 18 17  1  0  0  0  0
 19 18  1  0  0  0  0
M  END
>  <REMARK>
  5 active torsions:
  status: ('A' for Active; 'I' for Inactive)
    1  A    between atoms: O_1  and  C_2 
    2  A    between atoms: C_2  and  O_3 
    3  A    between atoms: C_2  and  C_4 
       I    between atoms: N_9  and  C_10 
    4  A    between atoms: C_10  and  C_12 
    5  A    between atoms: C_12  and  C_13 

>  <TORSDO>
F 5

$$$$
C:\Users\siddh\.mgltools\PyRx\Ligands\ZINC000088373840_uff_E=465.11.pdbqt
 OpenBabel04182118313D

 19 20  0  0  1  0  0  0  0  0999 V2000
    1.1020   -0.0780    2.7630 C   0  0  0  0  0  0  0  0  0  0  0  0
    1.1110   -0.9170    3.6470 O   0  0  0  0  0  0  0  0  0  0  0  0
    0.3130    1.0640    2.9120 N   0  0  0  0  0  0  0  0  0  0  0  0
    0.1460    2.0400    1.8350 C   0  0  0  0  0  2  0  0  0  0  0  0
   -1.3410    2.3500    1.6440 C   0  0  0  0  0  2  0  0  0  0  0  0
   -1.9080    2.8160    2.8500 O   0  0  0  0  0  0  0  0  0  0  0  0
   -1.8830    1.7710    3.8000 C   0  0  0  0  0  2  0  0  0  0  0  0
   -0.4310    1.3940    4.1560 C   0  0  1  0  0  3  0  0  0  0  0  0
    2.0200   -0.3550    1.5880 C   0  0  0  0  0  0  0  0  0  0  0  0
    2.4880   -1.5950    1.2800 N   0  0  0  0  0  0  0  0  0  0  0  0
    2.2090   -2.8650    1.9540 C   0  0  0  0  0  1  0  0  0  0  0  0
    3.2880   -1.4770    0.2030 C   0  0  0  0  0  3  0  0  0  0  0  0
    3.3670   -0.1590   -0.1790 C   0  0  0  0  0  3  0  0  0  0  0  0
    2.5870    0.5600    0.7000 C   0  0  0  0  0  3  0  0  0  0  0  0
   -0.4830    0.3410    5.2430 C   0  0  0  0  0  3  0  0  0  0  0  0
   -1.1320   -0.8240    5.0340 O   0  0  0  0  0  0  0  0  0  0  0  0
   -1.1620   -1.4720    5.7100 H   0  0  0  0  0  0  0  0  0  0  0  0
    0.0740    0.5830    6.4450 O   0  0  0  0  0  0  0  0  0  0  0  0
    0.5270    1.3890    6.5980 H   0  0  0  0  0  0  0  0  0  0  0  0
  1  3  1  0  0  0  0
  1  2  2  0  0  0  0
  3  8  1  0  0  0  0
  4  3  1  0  0  0  0
  5  4  1  0  0  0  0
  5  6  1  0  0  0  0
  6  7  1  0  0  0  0
  7  8  1  0  0  0  0
  8 15  1  1  0  0  0
  9  1  1  0  0  0  0
 10  9  1  0  0  0  0
 10 11  1  0  0  0  0
 12 10  1  0  0  0  0
 13 12  2  0  0  0  0
 13 14  1  0  0  0  0
 14  9  2  0  0  0  0
 15 18  1  0  0  0  0
 16 15  1  0  0  0  0
 16 17  1  0  0  0  0
 18 19  1  0  0  0  0
M  END
>  <REMARK>
  4 active torsions:
  status: ('A' for Active; 'I' for Inactive)
    1  A    between atoms: C_6  and  C_7 
       I    between atoms: C_7  and  N_9 
    2  A    between atoms: C_14  and  C_15 
    3  A    between atoms: C_15  and  O_16 
    4  A    between atoms: C_15  and  O_17 

>  <TORSDO>
F 4

$$$$
C:\Users\siddh\.mgltools\PyRx\Ligands\ZINC000088373749_uff_E=269.99.pdbqt
 OpenBabel04182118313D

 19 20  0  0  1  0  0  0  0  0999 V2000
    0.0310    2.0830   -0.9820 C   0  0  2  0  0  3  0  0  0  0  0  0
    1.2650    1.6300   -1.7900 C   0  0  0  0  0  2  0  0  0  0  0  0
    1.5830    2.5680   -2.8020 O   0  0  0  0  0  0  0  0  0  0  0  0
    1.9400    3.8040   -2.2110 C   0  0  0  0  0  2  0  0  0  0  0  0
    0.7380    4.4000   -1.4770 C   0  0  0  0  0  2  0  0  0  0  0  0
    0.2790    3.4450   -0.4660 N   0  0  0  0  0  0  0  0  0  0  0  0
    0.0280    3.8340    0.8440 C   0  0  0  0  0  0  0  0  0  0  0  0
   -0.4610    3.0400    1.6360 O   0  0  0  0  0  0  0  0  0  0  0  0
   -0.2770    1.0130    0.0450 C   0  0  0  0  0  3  0  0  0  0  0  0
   -1.4760    0.4010    0.0450 O   0  0  0  0  0  0  0  0  0  0  0  0
   -2.2870    0.8690    0.0440 H   0  0  0  0  0  0  0  0  0  0  0  0
    0.6530    0.6580    0.9560 O   0  0  0  0  0  0  0  0  0  0  0  0
    1.4890    1.0800    0.9620 H   0  0  0  0  0  0  0  0  0  0  0  0
    0.2560    5.2590    1.3390 C   0  0  1  0  0  3  0  0  0  0  0  0
   -0.5330    5.5500    2.6390 C   0  0  0  0  0  2  0  0  0  0  0  0
   -0.3480    6.8920    3.0500 O   0  0  0  0  0  0  0  0  0  0  0  0
    1.0070    7.1040    3.4020 C   0  0  0  0  0  2  0  0  0  0  0  0
    1.9190    6.9290    2.1800 C   0  0  0  0  0  2  0  0  0  0  0  0
    1.7490    5.5140    1.6220 C   0  0  0  0  0  2  0  0  0  0  0  0
  1  6  1  0  0  0  0
  1  9  1  1  0  0  0
  2  1  1  0  0  0  0
  3  4  1  0  0  0  0
  3  2  1  0  0  0  0
  4  5  1  0  0  0  0
  5  6  1  0  0  0  0
  6  7  1  0  0  0  0
  7  8  2  0  0  0  0
  9 10  1  0  0  0  0
  9 12  1  0  0  0  0
 11 10  1  0  0  0  0
 12 13  1  0  0  0  0
 14  7  1  1  0  0  0
 14 19  1  0  0  0  0
 14 15  1  0  0  0  0
 15 16  1  0  0  0  0
 16 17  1  0  0  0  0
 18 17  1  0  0  0  0
 19 18  1  0  0  0  0
M  END
>  <REMARK>
  4 active torsions:
  status: ('A' for Active; 'I' for Inactive)
    1  A    between atoms: O_1  and  C_2 
    2  A    between atoms: C_2  and  O_3 
    3  A    between atoms: C_2  and  C_4 
       I    between atoms: N_9  and  C_10 
    4  A    between atoms: C_10  and  C_12 

>  <TORSDO>
F 4

$$$$
C:\Users\siddh\.mgltools\PyRx\Ligands\ZINC000088373744_uff_E=276.78.pdbqt
 OpenBabel04182118313D

 19 20  0  0  1  0  0  0  0  0999 V2000
   -1.3120    2.1290    0.3640 C   0  0  1  0  0  3  0  0  0  0  0  0
   -1.9650    2.8830   -0.8160 C   0  0  0  0  0  2  0  0  0  0  0  0
   -3.1480    3.5440   -0.4050 O   0  0  0  0  0  0  0  0  0  0  0  0
   -4.1080    2.5870   -0.0000 C   0  0  0  0  0  2  0  0  0  0  0  0
   -3.6130    1.8420    1.2370 C   0  0  0  0  0  2  0  0  0  0  0  0
   -2.3190    1.2170    0.9430 N   0  0  0  0  0  0  0  0  0  0  0  0
   -2.0660   -0.1130    1.2550 C   0  0  0  0  0  0  0  0  0  0  0  0
   -0.9300   -0.5580    1.1570 O   0  0  0  0  0  0  0  0  0  0  0  0
   -0.0450    1.4820   -0.1580 C   0  0  0  0  0  3  0  0  0  0  0  0
   -0.1050    0.5940   -1.1720 O   0  0  0  0  0  0  0  0  0  0  0  0
   -0.1590    0.7790   -2.0890 H   0  0  0  0  0  0  0  0  0  0  0  0
    1.1480    1.8010    0.3770 O   0  0  0  0  0  0  0  0  0  0  0  0
    1.1960    2.4170    1.0820 H   0  0  0  0  0  0  0  0  0  0  0  0
   -3.1450   -1.0630    1.7590 C   0  0  1  0  0  3  0  0  0  0  0  0
   -4.0010   -1.5550    0.5680 C   0  0  0  0  0  2  0  0  0  0  0  0
   -5.0260   -2.4350    0.9980 O   0  0  0  0  0  0  0  0  0  0  0  0
   -4.4660   -3.5990    1.5830 C   0  0  0  0  0  2  0  0  0  0  0  0
   -3.6810   -3.2420    2.8490 C   0  0  0  0  0  2  0  0  0  0  0  0
   -2.5480   -2.2970    2.4600 C   0  0  0  0  0  2  0  0  0  0  0  0
  1  9  1  6  0  0  0
  1  6  1  0  0  0  0
  2  3  1  0  0  0  0
  2  1  1  0  0  0  0
  3  4  1  0  0  0  0
  4  5  1  0  0  0  0
  6  5  1  0  0  0  0
  6  7  1  0  0  0  0
  8  7  2  0  0  0  0
  9 12  1  0  0  0  0
 10  9  1  0  0  0  0
 11 10  1  0  0  0  0
 12 13  1  0  0  0  0
 14  7  1  6  0  0  0
 14 19  1  0  0  0  0
 15 16  1  0  0  0  0
 15 14  1  0  0  0  0
 16 17  1  0  0  0  0
 17 18  1  0  0  0  0
 19 18  1  0  0  0  0
M  END
>  <REMARK>
  4 active torsions:
  status: ('A' for Active; 'I' for Inactive)
    1  A    between atoms: O_1  and  C_2 
    2  A    between atoms: C_2  and  O_3 
    3  A    between atoms: C_2  and  C_4 
       I    between atoms: N_9  and  C_10 
    4  A    between atoms: C_10  and  C_12 

>  <TORSDO>
F 4

$$$$
C:\Users\siddh\.mgltools\PyRx\Ligands\ZINC000088373741_uff_E=269.55.pdbqt
 OpenBabel04182118313D

 19 20  0  0  1  0  0  0  0  0999 V2000
   -1.2580    1.7290   -0.3110 C   0  0  1  0  0  3  0  0  0  0  0  0
   -1.4460    1.7320   -1.8440 C   0  0  0  0  0  2  0  0  0  0  0  0
   -2.7510    2.1500   -2.1950 O   0  0  0  0  0  0  0  0  0  0  0  0
   -3.6920    1.2140   -1.7060 C   0  0  0  0  0  2  0  0  0  0  0  0
   -3.6760    1.2050   -0.1780 C   0  0  0  0  0  2  0  0  0  0  0  0
   -2.3210    0.8880    0.2840 N   0  0  0  0  0  0  0  0  0  0  0  0
   -2.0800   -0.1390    1.1870 C   0  0  0  0  0  0  0  0  0  0  0  0
   -0.9400   -0.3600    1.5710 O   0  0  0  0  0  0  0  0  0  0  0  0
    0.1750    1.3170   -0.0350 C   0  0  0  0  0  3  0  0  0  0  0  0
    0.6400    0.1310   -0.4810 O   0  0  0  0  0  0  0  0  0  0  0  0
    1.2670   -0.2190   -1.0830 H   0  0  0  0  0  0  0  0  0  0  0  0
    1.0020    2.1470    0.6280 O   0  0  0  0  0  0  0  0  0  0  0  0
    0.6870    2.9720    0.9410 H   0  0  0  0  0  0  0  0  0  0  0  0
   -3.1850   -1.0360    1.7400 C   0  0  2  0  0  3  0  0  0  0  0  0
   -4.1190   -0.3000    2.7360 C   0  0  0  0  0  2  0  0  0  0  0  0
   -5.1560   -1.1620    3.1780 O   0  0  0  0  0  0  0  0  0  0  0  0
   -4.6160   -2.2430    3.9180 C   0  0  0  0  0  2  0  0  0  0  0  0
   -3.7210   -3.1140    3.0310 C   0  0  0  0  0  2  0  0  0  0  0  0
   -2.5910   -2.2500    2.4870 C   0  0  0  0  0  2  0  0  0  0  0  0
  1  9  1  6  0  0  0
  1  6  1  0  0  0  0
  2  1  1  0  0  0  0
  3  2  1  0  0  0  0
  3  4  1  0  0  0  0
  4  5  1  0  0  0  0
  5  6  1  0  0  0  0
  6  7  1  0  0  0  0
  7  8  2  0  0  0  0
  9 12  1  0  0  0  0
 10  9  1  0  0  0  0
 11 10  1  0  0  0  0
 12 13  1  0  0  0  0
 14  7  1  1  0  0  0
 14 19  1  0  0  0  0
 14 15  1  0  0  0  0
 15 16  1  0  0  0  0
 16 17  1  0  0  0  0
 18 17  1  0  0  0  0
 19 18  1  0  0  0  0
M  END
>  <REMARK>
  4 active torsions:
  status: ('A' for Active; 'I' for Inactive)
    1  A    between atoms: O_1  and  C_2 
    2  A    between atoms: C_2  and  O_3 
    3  A    between atoms: C_2  and  C_4 
       I    between atoms: N_9  and  C_10 
    4  A    between atoms: C_10  and  C_12 

>  <TORSDO>
F 4

$$$$
C:\Users\siddh\.mgltools\PyRx\Ligands\ZINC000087616717_uff_E=588.34.pdbqt
 OpenBabel04182118313D

 15 15  0  0  1  0  0  0  0  0999 V2000
   -0.2710    1.3350    0.1470 C   0  0  0  0  0  1  0  0  0  0  0  0
    0.0810   -0.0730   -0.1290 N   0  0  0  0  0  0  0  0  0  0  0  0
   -1.1950   -0.8400   -0.2710 C   0  0  0  0  0  2  0  0  0  0  0  0
   -1.0010   -2.1960   -0.9500 C   0  0  0  0  0  2  0  0  0  0  0  0
    0.2080   -3.0860    0.0140 S   0  0  0  0  0  0  0  0  0  0  0  0
   -0.4370   -3.6380    1.2940 O   0  0  0  0  0  0  0  0  0  0  0  0
    0.6860   -4.3590   -0.7000 O   0  0  0  0  0  0  0  0  0  0  0  0
    1.5720   -2.0110    0.4340 C   0  0  0  0  0  2  0  0  0  0  0  0
    0.9890   -0.6600    0.9260 C   0  0  1  0  0  3  0  0  0  0  0  0
    2.1820    0.2750    1.3000 C   0  0  0  0  0  2  0  0  0  0  0  0
    3.0240   -0.2060    2.4590 C   0  0  0  0  0  3  0  0  0  0  0  0
    2.6900   -1.3010    3.1670 O   0  0  0  0  0  0  0  0  0  0  0  0
    3.2290   -1.5790    3.8810 H   0  0  0  0  0  0  0  0  0  0  0  0
    4.1080    0.5080    2.8240 O   0  0  0  0  0  0  0  0  0  0  0  0
    4.3500    1.2720    2.3390 H   0  0  0  0  0  0  0  0  0  0  0  0
  2  1  1  0  0  0  0
  2  9  1  0  0  0  0
  3  2  1  0  0  0  0
  4  3  1  0  0  0  0
  4  5  1  0  0  0  0
  5  8  1  0  0  0  0
  5  6  2  0  0  0  0
  7  5  2  0  0  0  0
  8  9  1  0  0  0  0
  9 10  1  6  0  0  0
 10 11  1  0  0  0  0
 11 14  1  0  0  0  0
 11 12  1  0  0  0  0
 12 13  1  0  0  0  0
 15 14  1  0  0  0  0
M  END
>  <REMARK>
  4 active torsions:
  status: ('A' for Active; 'I' for Inactive)
    1  A    between atoms: C_9  and  C_10 
    2  A    between atoms: C_10  and  C_11 
    3  A    between atoms: C_11  and  O_12 
    4  A    between atoms: C_11  and  O_13 

>  <TORSDO>
F 4

$$$$
C:\Users\siddh\.mgltools\PyRx\Ligands\ZINC000087208386_uff_E=263.77.pdbqt
 OpenBabel04182118313D

 19 20  0  0  1  0  0  0  0  0999 V2000
    0.0440   -0.1230    0.1320 O   0  0  0  0  0  0  0  0  0  0  0  0
   -0.0200    1.2200    0.0410 C   0  0  0  0  0  3  0  0  0  0  0  0
    0.1640   -1.0370    0.3020 H   0  0  0  0  0  0  0  0  0  0  0  0
    1.1190    1.9360   -0.0300 O   0  0  0  0  0  0  0  0  0  0  0  0
    1.0820    2.8700   -0.0930 H   0  0  0  0  0  0  0  0  0  0  0  0
   -1.3510    1.9200    0.0170 C   0  0  2  0  0  3  0  0  0  0  0  0
   -2.3930    0.9620    0.1530 O   0  0  0  0  0  0  0  0  0  0  0  0
   -3.6550    1.6090    0.2120 C   0  0  0  0  0  2  0  0  0  0  0  0
   -3.9380    2.3420   -1.1010 C   0  0  0  0  0  2  0  0  0  0  0  0
   -2.8420    3.2720   -1.3350 N   0  0  0  0  0  0  0  0  0  0  0  0
   -1.5070    2.6900   -1.3090 C   0  0  0  0  0  2  0  0  0  0  0  0
   -3.0340    4.6180   -1.5550 C   0  0  0  0  0  0  0  0  0  0  0  0
   -2.0720    5.3460   -1.7590 O   0  0  0  0  0  0  0  0  0  0  0  0
   -4.4260    5.2210   -1.5760 C   0  0  0  0  0  2  0  0  0  0  0  0
   -4.4640    6.6980   -2.0020 C   0  0  1  0  0  3  0  0  0  0  0  0
   -3.9820    6.8350   -3.3310 O   0  0  0  0  0  0  0  0  0  0  0  0
   -4.9940    7.5020   -4.0530 C   0  0  0  0  0  2  0  0  0  0  0  0
   -5.8140    8.2700   -3.0370 C   0  0  0  0  0  2  0  0  0  0  0  0
   -5.9000    7.2260   -1.9740 C   0  0  0  0  0  2  0  0  0  0  0  0
  1  3  1  0  0  0  0
  2  1  1  0  0  0  0
  4  2  1  0  0  0  0
  5  4  1  0  0  0  0
  6  2  1  6  0  0  0
  6  7  1  0  0  0  0
  7  8  1  0  0  0  0
  9  8  1  0  0  0  0
 10 11  1  0  0  0  0
 10  9  1  0  0  0  0
 11  6  1  0  0  0  0
 12 10  1  0  0  0  0
 13 12  2  0  0  0  0
 14 12  1  0  0  0  0
 15 19  1  0  0  0  0
 15 14  1  6  0  0  0
 16 15  1  0  0  0  0
 17 16  1  0  0  0  0
 17 18  1  0  0  0  0
 18 19  1  0  0  0  0
M  END
>  <REMARK>
  4 active torsions:
  status: ('A' for Active; 'I' for Inactive)
    1  A    between atoms: C_2  and  O_3 
    2  A    between atoms: C_2  and  C_4 
       I    between atoms: N_6  and  C_7 
    3  A    between atoms: C_7  and  C_9 
    4  A    between atoms: C_9  and  C_10 

>  <TORSDO>
F 4

$$$$
C:\Users\siddh\.mgltools\PyRx\Ligands\ZINC000087208382_uff_E=260.78.pdbqt
 OpenBabel04182118313D

 19 20  0  0  1  0  0  0  0  0999 V2000
    0.0350   -0.1220   -0.0690 O   0  0  0  0  0  0  0  0  0  0  0  0
   -0.0240    1.2240   -0.0370 C   0  0  0  0  0  3  0  0  0  0  0  0
    0.1480   -1.0500   -0.1320 H   0  0  0  0  0  0  0  0  0  0  0  0
    1.1170    1.9400   -0.0570 O   0  0  0  0  0  0  0  0  0  0  0  0
    1.0830    2.8760   -0.0340 H   0  0  0  0  0  0  0  0  0  0  0  0
   -1.3530    1.9280    0.0250 C   0  0  1  0  0  3  0  0  0  0  0  0
   -2.4000    0.9650   -0.0010 O   0  0  0  0  0  0  0  0  0  0  0  0
   -3.6650    1.6080   -0.0110 C   0  0  0  0  0  2  0  0  0  0  0  0
   -3.8690    2.4000    1.2860 C   0  0  0  0  0  2  0  0  0  0  0  0
   -2.7670    3.3440    1.4020 N   0  0  0  0  0  0  0  0  0  0  0  0
   -1.4330    2.7650    1.3170 C   0  0  0  0  0  2  0  0  0  0  0  0
   -2.9530    4.7010    1.5480 C   0  0  0  0  0  0  0  0  0  0  0  0
   -1.9850    5.4470    1.6000 O   0  0  0  0  0  0  0  0  0  0  0  0
   -4.3440    5.2980    1.6690 C   0  0  0  0  0  2  0  0  0  0  0  0
   -4.3650    6.8310    1.7750 C   0  0  1  0  0  3  0  0  0  0  0  0
   -3.8310    7.4140    0.5960 O   0  0  0  0  0  0  0  0  0  0  0  0
   -4.8050    8.3200    0.1270 C   0  0  0  0  0  2  0  0  0  0  0  0
   -5.6590    8.6940    1.3210 C   0  0  0  0  0  2  0  0  0  0  0  0
   -5.7990    7.3400    1.9330 C   0  0  0  0  0  2  0  0  0  0  0  0
  1  2  1  0  0  0  0
  3  1  1  0  0  0  0
  4  2  1  0  0  0  0
  4  5  1  0  0  0  0
  6  2  1  1  0  0  0
  6 11  1  0  0  0  0
  7  6  1  0  0  0  0
  8  7  1  0  0  0  0
  8  9  1  0  0  0  0
  9 10  1  0  0  0  0
 10 12  1  0  0  0  0
 11 10  1  0  0  0  0
 12 13  2  0  0  0  0
 12 14  1  0  0  0  0
 15 14  1  6  0  0  0
 15 19  1  0  0  0  0
 16 15  1  0  0  0  0
 17 16  1  0  0  0  0
 17 18  1  0  0  0  0
 18 19  1  0  0  0  0
M  END
>  <REMARK>
  4 active torsions:
  status: ('A' for Active; 'I' for Inactive)
    1  A    between atoms: C_2  and  O_3 
    2  A    between atoms: C_2  and  C_4 
       I    between atoms: N_6  and  C_7 
    3  A    between atoms: C_7  and  C_9 
    4  A    between atoms: C_9  and  C_10 

>  <TORSDO>
F 4

$$$$
C:\Users\siddh\.mgltools\PyRx\Ligands\ZINC000086012760_uff_E=203.49.pdbqt
 OpenBabel04182118313D

 20 20  0  0  1  0  0  0  0  0999 V2000
    3.3390   -1.2590   -0.7210 C   0  0  0  0  0  0  0  0  0  0  0  0
    3.8190   -0.4150    0.0180 O   0  0  0  0  0  0  0  0  0  0  0  0
    3.4250   -1.1190   -2.0920 N   0  0  0  0  0  0  0  0  0  0  0  0
    2.9230   -2.1790   -2.9660 C   0  0  0  0  0  2  0  0  0  0  0  0
    2.2330   -1.6220   -4.1910 C   0  0  0  0  0  0  0  0  0  0  0  0
    1.6580   -2.3910   -4.9470 O   0  0  0  0  0  0  0  0  0  0  0  0
    2.2380   -0.2900   -4.4700 N   0  0  0  0  0  0  0  0  0  0  0  0
    2.9610    0.6820   -3.6720 C   0  0  0  0  0  2  0  0  0  0  0  0
    4.0320    0.0330   -2.7740 C   0  0  1  0  0  3  0  0  0  0  0  0
    1.6900    0.0560   -5.2730 H   0  0  0  0  0  0  0  0  0  0  0  0
    2.7270   -2.3530   -0.1720 O   0  0  0  0  0  0  0  0  0  0  0  0
    2.5560   -2.5980    1.1940 C   0  0  0  0  0  0  0  0  0  0  0  0
    1.7370   -1.4660    1.8560 C   0  0  0  0  0  1  0  0  0  0  0  0
    3.9230   -2.7650    1.8940 C   0  0  0  0  0  1  0  0  0  0  0  0
    1.7700   -3.9100    1.3540 C   0  0  0  0  0  1  0  0  0  0  0  0
    4.6420    1.1250   -1.9140 C   0  0  0  0  0  3  0  0  0  0  0  0
    3.8620    1.8980   -1.1290 O   0  0  0  0  0  0  0  0  0  0  0  0
    4.2480    2.5700   -0.6010 H   0  0  0  0  0  0  0  0  0  0  0  0
    5.9660    1.3640   -1.9710 O   0  0  0  0  0  0  0  0  0  0  0  0
    6.5150    0.8330   -2.5130 H   0  0  0  0  0  0  0  0  0  0  0  0
  1 11  1  0  0  0  0
  1  2  2  0  0  0  0
  3  1  1  0  0  0  0
  4  3  1  0  0  0  0
  5  4  1  0  0  0  0
  6  5  2  0  0  0  0
  7  5  1  0  0  0  0
  7  8  1  0  0  0  0
  8  9  1  0  0  0  0
  9  3  1  0  0  0  0
  9 16  1  1  0  0  0
 10  7  1  0  0  0  0
 11 12  1  0  0  0  0
 12 15  1  0  0  0  0
 12 13  1  0  0  0  0
 12 14  1  0  0  0  0
 16 17  1  0  0  0  0
 17 18  1  0  0  0  0
 19 16  1  0  0  0  0
 20 19  1  0  0  0  0
M  END
>  <REMARK>
  5 active torsions:
  status: ('A' for Active; 'I' for Inactive)
    1  A    between atoms: C_2  and  O_5 
    2  A    between atoms: O_5  and  C_6 
       I    between atoms: C_6  and  N_8 
    3  A    between atoms: C_14  and  C_15 
    4  A    between atoms: C_15  and  O_16 
    5  A    between atoms: C_15  and  O_17 

>  <TORSDO>
F 5

$$$$
C:\Users\siddh\.mgltools\PyRx\Ligands\ZINC000086012758_uff_E=203.05.pdbqt
 OpenBabel04182118313D

 20 20  0  0  1  0  0  0  0  0999 V2000
    2.3530    1.7650   -2.9380 C   0  0  0  0  0  0  0  0  0  0  0  0
    2.8190    2.3810   -1.9950 O   0  0  0  0  0  0  0  0  0  0  0  0
    2.8950    0.5520   -3.3170 N   0  0  0  0  0  0  0  0  0  0  0  0
    2.3340   -0.1760   -4.4540 C   0  0  0  0  0  2  0  0  0  0  0  0
    2.2760   -1.6650   -4.1860 C   0  0  0  0  0  0  0  0  0  0  0  0
    1.7030   -2.3880   -4.9880 O   0  0  0  0  0  0  0  0  0  0  0  0
    2.8460   -2.2160   -3.0780 N   0  0  0  0  0  0  0  0  0  0  0  0
    3.6190   -1.4470   -2.1200 C   0  0  0  0  0  2  0  0  0  0  0  0
    4.0540   -0.0790   -2.6730 C   0  0  2  0  0  3  0  0  0  0  0  0
    2.7160   -3.2230   -2.8970 H   0  0  0  0  0  0  0  0  0  0  0  0
    1.3070    2.3060   -3.6350 O   0  0  0  0  0  0  0  0  0  0  0  0
    0.6780    3.5240   -3.3560 C   0  0  0  0  0  0  0  0  0  0  0  0
    1.6800    4.6990   -3.4470 C   0  0  0  0  0  1  0  0  0  0  0  0
    0.0120    3.4800   -1.9640 C   0  0  0  0  0  1  0  0  0  0  0  0
   -0.4190    3.7550   -4.4090 C   0  0  0  0  0  1  0  0  0  0  0  0
    4.7600    0.6860   -1.5690 C   0  0  0  0  0  3  0  0  0  0  0  0
    6.0230    1.1160   -1.7520 O   0  0  0  0  0  0  0  0  0  0  0  0
    6.4610    1.5880   -1.0720 H   0  0  0  0  0  0  0  0  0  0  0  0
    4.1560    0.8950   -0.3800 O   0  0  0  0  0  0  0  0  0  0  0  0
    3.2770    0.6000   -0.2430 H   0  0  0  0  0  0  0  0  0  0  0  0
  1  2  2  0  0  0  0
  3  1  1  0  0  0  0
  3  9  1  0  0  0  0
  4  5  1  0  0  0  0
  4  3  1  0  0  0  0
  5  7  1  0  0  0  0
  6  5  2  0  0  0  0
  7 10  1  0  0  0  0
  7  8  1  0  0  0  0
  9  8  1  0  0  0  0
  9 16  1  1  0  0  0
 11 12  1  0  0  0  0
 11  1  1  0  0  0  0
 12 14  1  0  0  0  0
 13 12  1  0  0  0  0
 15 12  1  0  0  0  0
 16 19  1  0  0  0  0
 17 16  1  0  0  0  0
 17 18  1  0  0  0  0
 19 20  1  0  0  0  0
M  END
>  <REMARK>
  5 active torsions:
  status: ('A' for Active; 'I' for Inactive)
    1  A    between atoms: C_2  and  O_5 
    2  A    between atoms: O_5  and  C_6 
       I    between atoms: C_6  and  N_8 
    3  A    between atoms: C_14  and  C_15 
    4  A    between atoms: C_15  and  O_16 
    5  A    between atoms: C_15  and  O_17 

>  <TORSDO>
F 5

$$$$
C:\Users\siddh\.mgltools\PyRx\Ligands\ZINC000085231638_uff_E=269.81.pdbqt
 OpenBabel04182118313D

 19 19  0  0  1  0  0  0  0  0999 V2000
    0.7510   -0.4940   -1.2390 C   0  0  0  0  0  2  0  0  0  0  0  0
    0.0060    0.0020    0.0270 C   0  0  2  0  0  0  0  0  0  0  0  0
   -0.0570    1.5410    0.0400 C   0  0  0  0  0  1  0  0  0  0  0  0
    0.6860   -0.4250    1.1850 O   0  0  0  0  0  0  0  0  0  0  0  0
    0.7420   -1.4170    1.1620 H   0  0  0  0  0  0  0  0  0  0  0  0
   -1.4130   -0.5310    0.0280 C   0  0  0  0  0  3  0  0  0  0  0  0
   -2.2520   -0.2240   -0.9820 O   0  0  0  0  0  0  0  0  0  0  0  0
   -3.1290   -0.5540   -0.9790 H   0  0  0  0  0  0  0  0  0  0  0  0
   -1.8520   -1.3100    1.0370 O   0  0  0  0  0  0  0  0  0  0  0  0
   -1.2760   -1.5300    1.7430 H   0  0  0  0  0  0  0  0  0  0  0  0
    2.1270   -0.0270   -1.2730 N   0  0  0  0  0  0  0  0  0  0  0  0
    2.9510   -0.3170   -2.3120 C   0  0  0  0  0  0  0  0  0  0  0  0
    2.5530   -0.9970   -3.2470 O   0  0  0  0  0  0  0  0  0  0  0  0
    2.4940    0.5390   -0.4950 H   0  0  0  0  0  0  0  0  0  0  0  0
    4.3330    0.1970   -2.3210 C   0  0  0  0  0  0  0  0  0  0  0  0
    4.8510    0.9550   -1.3800 O   0  0  0  0  0  0  0  0  0  0  0  0
    6.0950    1.2380   -1.6980 C   0  0  0  0  0  3  0  0  0  0  0  0
    6.4060    0.6390   -2.9020 C   0  0  0  0  0  3  0  0  0  0  0  0
    5.2720   -0.0300   -3.3030 C   0  0  0  0  0  3  0  0  0  0  0  0
  1  2  1  0  0  0  0
  2  6  1  0  0  0  0
  2  3  1  6  0  0  0
  2  4  1  0  0  0  0
  5  4  1  0  0  0  0
  6  9  1  0  0  0  0
  7  8  1  0  0  0  0
  7  6  1  0  0  0  0
  9 10  1  0  0  0  0
 11  1  1  0  0  0  0
 11 14  1  0  0  0  0
 12 11  1  0  0  0  0
 13 12  2  0  0  0  0
 15 12  1  0  0  0  0
 15 16  1  0  0  0  0
 17 16  1  0  0  0  0
 18 17  2  0  0  0  0
 19 18  1  0  0  0  0
 19 15  2  0  0  0  0
M  END
>  <REMARK>
  7 active torsions:
  status: ('A' for Active; 'I' for Inactive)
    1  A    between atoms: C_2  and  O_3 
    2  A    between atoms: C_2  and  C_4 
    3  A    between atoms: C_2  and  C_13 
    4  A    between atoms: C_4  and  N_5 
       I    between atoms: N_5  and  C_6 
    5  A    between atoms: C_6  and  C_8 
    6  A    between atoms: C_13  and  O_14 
    7  A    between atoms: C_13  and  O_15 

>  <TORSDO>
F 7

$$$$
C:\Users\siddh\.mgltools\PyRx\Ligands\ZINC000084614927_uff_E=322.84.pdbqt
 OpenBabel04182118313D

 21 22  0  0  1  0  0  0  0  0999 V2000
   -1.2520   -0.7650    0.0110 C   0  0  0  0  0  0  0  0  0  0  0  0
   -1.4180   -2.1290    0.0100 C   0  0  1  0  0  3  0  0  0  0  0  0
   -0.4710   -3.1000    0.0010 N   0  0  0  0  0  0  0  0  0  0  0  0
    0.5200   -2.8590   -0.0060 H   0  0  0  0  0  0  0  0  0  0  0  0
   -0.8690   -4.4050    0.0030 C   0  0  0  0  0  2  0  0  0  0  0  0
   -2.2380   -4.7320    0.0130 C   0  0  0  0  0  3  0  0  0  0  0  0
   -3.1880   -3.6940    0.0210 C   0  0  0  0  0  0  0  0  0  0  0  0
   -2.7230   -2.4150    0.0200 N   0  0  0  0  0  0  0  0  0  0  0  0
   -3.4270   -1.2920    0.0280 N   0  0  0  0  0  0  0  0  0  0  0  0
   -4.4440   -1.2180    0.0360 H   0  0  0  0  0  0  0  0  0  0  0  0
   -2.5490   -0.2590    0.0230 C   0  0  0  0  0  3  0  0  0  0  0  0
    0.0140   -0.0050    0.0030 C   0  0  0  0  0  0  0  0  0  0  0  0
    0.0070    1.3480    0.0080 N   0  0  0  0  0  0  0  0  0  0  0  0
    0.8920    1.8730    0.0030 H   0  0  0  0  0  0  0  0  0  0  0  0
   -0.8780    1.8740    0.0180 H   0  0  0  0  0  0  0  0  0  0  0  0
    1.0800   -0.6040   -0.0090 O   0  0  0  0  0  0  0  0  0  0  0  0
   -4.6340   -4.0040    0.0310 C   0  0  0  0  0  3  0  0  0  0  0  0
   -5.0500   -5.2850    0.0330 O   0  0  0  0  0  0  0  0  0  0  0  0
   -5.9660   -5.4810    0.0400 H   0  0  0  0  0  0  0  0  0  0  0  0
   -5.5480   -3.0160    0.0390 O   0  0  0  0  0  0  0  0  0  0  0  0
   -5.2700   -2.1210    0.0370 H   0  0  0  0  0  0  0  0  0  0  0  0
  1 11  2  0  0  0  0
  2  1  1  1  0  0  0
  2  8  1  0  0  0  0
  3  5  1  0  0  0  0
  3  2  1  0  0  0  0
  4  3  1  0  0  0  0
  5  6  1  0  0  0  0
  6  7  2  0  0  0  0
  7 17  1  0  0  0  0
  8  7  1  0  0  0  0
  8  9  1  0  0  0  0
  9 10  1  0  0  0  0
 11  9  1  0  0  0  0
 12 13  1  0  0  0  0
 12  1  1  0  0  0  0
 13 15  1  0  0  0  0
 14 13  1  0  0  0  0
 16 12  2  0  0  0  0
 17 18  1  0  0  0  0
 17 20  1  0  0  0  0
 18 19  1  0  0  0  0
 21 20  1  0  0  0  0
M  END
>  <REMARK>
  4 active torsions:
  status: ('A' for Active; 'I' for Inactive)
       I    between atoms: N_1  and  C_2 
    1  A    between atoms: C_2  and  C_4 
    2  A    between atoms: C_10  and  C_11 
    3  A    between atoms: C_11  and  O_12 
    4  A    between atoms: C_11  and  O_13 

>  <TORSDO>
F 4

$$$$
C:\Users\siddh\.mgltools\PyRx\Ligands\ZINC000084063773_uff_E=1393.83.pdbqt
 OpenBabel04182118313D

 20 21  0  0  1  0  0  0  0  0999 V2000
   -2.3030   -2.9550   -0.3430 N   0  0  0  0  0  0  0  0  0  0  0  0
   -3.3730   -2.7610   -1.1640 C   0  0  0  0  0  0  0  0  0  0  0  0
   -3.3340   -1.8990   -2.0320 O   0  0  0  0  0  0  0  0  0  0  0  0
   -2.3480   -3.7120    0.3580 H   0  0  0  0  0  0  0  0  0  0  0  0
   -1.0660   -2.1950   -0.4890 C   0  0  1  0  0  3  0  0  0  0  0  0
   -1.2400   -0.7170   -0.0640 C   0  0  0  0  0  2  0  0  0  0  0  0
    0.0230    0.0290   -0.0240 N   0  0  0  0  0  0  0  0  0  0  0  0
   -0.0590    1.4820    0.0490 C   0  0  0  0  0  1  0  0  0  0  0  0
    1.2440   -0.6070   -0.0520 C   0  0  0  0  0  0  0  0  0  0  0  0
    1.3610   -2.1110   -0.0150 C   0  0  0  0  0  2  0  0  0  0  0  0
    2.2780    0.0460   -0.1170 O   0  0  0  0  0  0  0  0  0  0  0  0
    0.0460   -2.7950    0.3560 C   0  0  0  0  0  2  0  0  0  0  0  0
   -4.5920   -3.6570   -1.0370 C   0  0  2  0  0  3  0  0  0  0  0  0
   -5.7600   -3.4450   -2.0180 C   0  0  2  0  0  3  0  0  0  0  0  0
   -5.7940   -2.8150   -0.6320 C   0  0  0  0  0  2  0  0  0  0  0  0
   -6.5420   -4.7170   -2.2360 C   0  0  0  0  0  3  0  0  0  0  0  0
   -7.5640   -4.7150   -3.1120 O   0  0  0  0  0  0  0  0  0  0  0  0
   -8.0590   -5.4970   -3.2570 H   0  0  0  0  0  0  0  0  0  0  0  0
   -6.2330   -5.8570   -1.5840 O   0  0  0  0  0  0  0  0  0  0  0  0
   -5.5240   -5.8690   -0.9720 H   0  0  0  0  0  0  0  0  0  0  0  0
  1  4  1  0  0  0  0
  2  1  1  0  0  0  0
  3  2  2  0  0  0  0
  5  1  1  1  0  0  0
  5  6  1  0  0  0  0
  5 12  1  0  0  0  0
  6  7  1  0  0  0  0
  7  8  1  0  0  0  0
  9  7  1  0  0  0  0
  9 10  1  0  0  0  0
 10 12  1  0  0  0  0
 11  9  2  0  0  0  0
 13  2  1  6  0  0  0
 13 15  1  0  0  0  0
 14 16  1  1  0  0  0
 14 13  1  0  0  0  0
 14 15  1  0  0  0  0
 16 19  1  0  0  0  0
 17 16  1  0  0  0  0
 18 17  1  0  0  0  0
 19 20  1  0  0  0  0
M  END
>  <REMARK>
  5 active torsions:
  status: ('A' for Active; 'I' for Inactive)
    1  A    between atoms: C_4  and  N_5 
       I    between atoms: N_5  and  C_6 
    2  A    between atoms: C_6  and  C_8 
    3  A    between atoms: C_10  and  C_11 
    4  A    between atoms: C_11  and  O_12 
    5  A    between atoms: C_11  and  O_13 

>  <TORSDO>
F 5

$$$$
C:\Users\siddh\.mgltools\PyRx\Ligands\ZINC000083875262_uff_E=443.59.pdbqt
 OpenBabel04182118313D

 19 20  0  0  1  0  0  0  0  0999 V2000
   -1.3130    2.0970    0.4030 C   0  0  1  0  0  3  0  0  0  0  0  0
   -2.0400    2.9250   -0.6850 C   0  0  0  0  0  2  0  0  0  0  0  0
   -3.1620    3.6130   -0.1580 O   0  0  0  0  0  0  0  0  0  0  0  0
   -4.1070    2.6890    0.3570 C   0  0  0  0  0  2  0  0  0  0  0  0
   -3.4910    1.9310    1.5290 C   0  0  0  0  0  2  0  0  0  0  0  0
   -2.3140    1.2200    1.0390 N   0  0  0  0  0  0  0  0  0  0  0  0
   -2.1440   -0.1450    1.2300 C   0  0  0  0  0  0  0  0  0  0  0  0
   -1.0460   -0.6530    1.0570 O   0  0  0  0  0  0  0  0  0  0  0  0
   -0.1300    1.4090   -0.2430 C   0  0  0  0  0  3  0  0  0  0  0  0
   -0.3170    0.5630   -1.2770 O   0  0  0  0  0  0  0  0  0  0  0  0
   -0.4780    0.7990   -2.1690 H   0  0  0  0  0  0  0  0  0  0  0  0
    1.1180    1.6520    0.2000 O   0  0  0  0  0  0  0  0  0  0  0  0
    1.2540    2.2390    0.9180 H   0  0  0  0  0  0  0  0  0  0  0  0
   -3.2270   -1.0580    1.6940 C   0  0  0  0  0  0  0  0  0  0  0  0
   -4.5460   -0.9370    1.4260 N   0  0  0  0  0  0  0  0  0  0  0  0
   -5.1680   -1.9750    2.0120 C   0  0  0  0  0  3  0  0  0  0  0  0
   -5.0220   -0.2080    0.8500 H   0  0  0  0  0  0  0  0  0  0  0  0
   -4.2430   -2.7800    2.6440 C   0  0  0  0  0  3  0  0  0  0  0  0
   -3.0070   -2.2090    2.4260 C   0  0  0  0  0  3  0  0  0  0  0  0
  1  9  1  6  0  0  0
  1  6  1  0  0  0  0
  2  3  1  0  0  0  0
  2  1  1  0  0  0  0
  3  4  1  0  0  0  0
  4  5  1  0  0  0  0
  6  7  1  0  0  0  0
  6  5  1  0  0  0  0
  7 14  1  0  0  0  0
  8  7  2  0  0  0  0
  9 12  1  0  0  0  0
 10  9  1  0  0  0  0
 11 10  1  0  0  0  0
 12 13  1  0  0  0  0
 14 19  2  0  0  0  0
 15 14  1  0  0  0  0
 15 16  1  0  0  0  0
 16 18  2  0  0  0  0
 17 15  1  0  0  0  0
 19 18  1  0  0  0  0
M  END
>  <REMARK>
  4 active torsions:
  status: ('A' for Active; 'I' for Inactive)
    1  A    between atoms: O_1  and  C_2 
    2  A    between atoms: C_2  and  O_3 
    3  A    between atoms: C_2  and  C_4 
       I    between atoms: N_9  and  C_10 
    4  A    between atoms: C_10  and  C_12 

>  <TORSDO>
F 4

$$$$
C:\Users\siddh\.mgltools\PyRx\Ligands\ZINC000083875213_uff_E=307.74.pdbqt
 OpenBabel04182118313D

 18 19  0  0  1  0  0  0  0  0999 V2000
   -1.3470    1.9280   -0.0520 C   0  0  1  0  0  3  0  0  0  0  0  0
   -1.7730    2.3150   -1.4820 C   0  0  0  0  0  2  0  0  0  0  0  0
   -3.0630    2.8960   -1.4830 O   0  0  0  0  0  0  0  0  0  0  0  0
   -4.0120    1.9390   -1.0490 C   0  0  0  0  0  2  0  0  0  0  0  0
   -3.7480    1.5520    0.4080 C   0  0  0  0  0  2  0  0  0  0  0  0
   -2.3830    1.0430    0.5260 N   0  0  0  0  0  0  0  0  0  0  0  0
   -2.1110   -0.1620    1.1590 C   0  0  0  0  0  0  0  0  0  0  0  0
   -0.9560   -0.5570    1.2470 O   0  0  0  0  0  0  0  0  0  0  0  0
    0.0680    1.3920   -0.1140 C   0  0  0  0  0  3  0  0  0  0  0  0
    0.3610    0.3250   -0.8870 O   0  0  0  0  0  0  0  0  0  0  0  0
    0.6900    0.2350   -1.7600 H   0  0  0  0  0  0  0  0  0  0  0  0
    1.0520    2.0020    0.5740 O   0  0  0  0  0  0  0  0  0  0  0  0
    0.8570    2.7430    1.1130 H   0  0  0  0  0  0  0  0  0  0  0  0
   -3.1870   -1.0350    1.8150 C   0  0  2  0  0  3  0  0  0  0  0  0
   -3.9000   -0.4160    3.0260 C   0  0  0  0  0  2  0  0  0  0  0  0
   -4.4100   -1.4750    3.8190 O   0  0  0  0  0  0  0  0  0  0  0  0
   -3.8270   -2.6640    3.3250 C   0  0  0  0  0  2  0  0  0  0  0  0
   -2.6280   -2.2560    2.5020 C   0  0  0  0  0  2  0  0  0  0  0  0
  1  9  1  6  0  0  0
  1  6  1  0  0  0  0
  2  1  1  0  0  0  0
  3  2  1  0  0  0  0
  3  4  1  0  0  0  0
  4  5  1  0  0  0  0
  5  6  1  0  0  0  0
  6  7  1  0  0  0  0
  7  8  2  0  0  0  0
  9 12  1  0  0  0  0
 10  9  1  0  0  0  0
 11 10  1  0  0  0  0
 12 13  1  0  0  0  0
 14  7  1  1  0  0  0
 14 18  1  0  0  0  0
 14 15  1  0  0  0  0
 15 16  1  0  0  0  0
 17 16  1  0  0  0  0
 18 17  1  0  0  0  0
M  END
>  <REMARK>
  4 active torsions:
  status: ('A' for Active; 'I' for Inactive)
    1  A    between atoms: O_1  and  C_2 
    2  A    between atoms: C_2  and  O_3 
    3  A    between atoms: C_2  and  C_4 
       I    between atoms: N_9  and  C_10 
    4  A    between atoms: C_10  and  C_12 

>  <TORSDO>
F 4

$$$$
C:\Users\siddh\.mgltools\PyRx\Ligands\ZINC000083875211_uff_E=304.91.pdbqt
 OpenBabel04182118313D

 18 19  0  0  1  0  0  0  0  0999 V2000
   -1.3530    2.0140    0.0370 C   0  0  1  0  0  3  0  0  0  0  0  0
   -1.8100    2.3430   -1.4010 C   0  0  0  0  0  2  0  0  0  0  0  0
   -3.1230    2.8770   -1.4120 O   0  0  0  0  0  0  0  0  0  0  0  0
   -4.0420    1.9180   -0.9160 C   0  0  0  0  0  2  0  0  0  0  0  0
   -3.7270    1.5950    0.5460 C   0  0  0  0  0  2  0  0  0  0  0  0
   -2.3550    1.1010    0.6210 N   0  0  0  0  0  0  0  0  0  0  0  0
   -2.0550   -0.1310    1.1810 C   0  0  0  0  0  0  0  0  0  0  0  0
   -0.8880   -0.4550    1.3570 O   0  0  0  0  0  0  0  0  0  0  0  0
    0.0770    1.5150   -0.0330 C   0  0  0  0  0  3  0  0  0  0  0  0
    0.3890    0.4410   -0.7880 O   0  0  0  0  0  0  0  0  0  0  0  0
    0.7460    0.3370   -1.6490 H   0  0  0  0  0  0  0  0  0  0  0  0
    1.0520    2.1670    0.6280 O   0  0  0  0  0  0  0  0  0  0  0  0
    0.8420    2.9130    1.1540 H   0  0  0  0  0  0  0  0  0  0  0  0
   -3.1240   -1.1440    1.5860 C   0  0  1  0  0  3  0  0  0  0  0  0
   -3.8910   -1.7250    0.3930 C   0  0  0  0  0  2  0  0  0  0  0  0
   -4.4130   -2.9840    0.7800 O   0  0  0  0  0  0  0  0  0  0  0  0
   -3.7900   -3.3160    2.0040 C   0  0  0  0  0  2  0  0  0  0  0  0
   -2.5690   -2.4330    2.1340 C   0  0  0  0  0  2  0  0  0  0  0  0
  1  9  1  6  0  0  0
  1  6  1  0  0  0  0
  2  1  1  0  0  0  0
  3  2  1  0  0  0  0
  3  4  1  0  0  0  0
  4  5  1  0  0  0  0
  5  6  1  0  0  0  0
  6  7  1  0  0  0  0
  7  8  2  0  0  0  0
  9 12  1  0  0  0  0
 10  9  1  0  0  0  0
 11 10  1  0  0  0  0
 12 13  1  0  0  0  0
 14  7  1  6  0  0  0
 14 18  1  0  0  0  0
 15 16  1  0  0  0  0
 15 14  1  0  0  0  0
 16 17  1  0  0  0  0
 17 18  1  0  0  0  0
M  END
>  <REMARK>
  4 active torsions:
  status: ('A' for Active; 'I' for Inactive)
    1  A    between atoms: O_1  and  C_2 
    2  A    between atoms: C_2  and  O_3 
    3  A    between atoms: C_2  and  C_4 
       I    between atoms: N_9  and  C_10 
    4  A    between atoms: C_10  and  C_12 

>  <TORSDO>
F 4

$$$$
C:\Users\siddh\.mgltools\PyRx\Ligands\ZINC000083255146_uff_E=633.24.pdbqt
 OpenBabel04182118313D

 16 16  0  0  0  0  0  0  0  0999 V2000
    2.4930   -0.3820   -1.1980 C   0  0  0  0  0  0  0  0  0  0  0  0
    3.4500   -1.1020   -0.5170 C   0  0  0  0  0  3  0  0  0  0  0  0
    4.6440   -0.4570   -0.7750 C   0  0  0  0  0  0  0  0  0  0  0  0
    4.3460    0.6090   -1.5960 C   0  0  0  0  0  3  0  0  0  0  0  0
    3.0510    0.6280   -1.8300 O   0  0  0  0  0  0  0  0  0  0  0  0
    0.7350   -0.7410   -1.2360 S   0  0  0  0  0  0  0  0  0  0  0  0
    0.4590   -2.2470   -1.1210 O   0  0  0  0  0  0  0  0  0  0  0  0
    0.0970   -0.4230   -2.5960 O   0  0  0  0  0  0  0  0  0  0  0  0
   -0.3290    0.0070   -0.0290 N   0  0  0  0  0  0  0  0  0  0  0  0
   -0.0870    1.4460    0.0180 C   0  0  0  0  0  1  0  0  0  0  0  0
   -0.1090   -0.4120    0.9030 H   0  0  0  0  0  0  0  0  0  0  0  0
    5.9720   -0.8360   -0.2690 C   0  0  0  0  0  3  0  0  0  0  0  0
    6.1140   -1.9100    0.5290 O   0  0  0  0  0  0  0  0  0  0  0  0
    6.9630   -2.1470    0.8490 H   0  0  0  0  0  0  0  0  0  0  0  0
    7.0550   -0.1030   -0.5990 O   0  0  0  0  0  0  0  0  0  0  0  0
    6.9620    0.6450   -1.1540 H   0  0  0  0  0  0  0  0  0  0  0  0
  1  2  2  0  0  0  0
  3  2  1  0  0  0  0
  3 12  1  0  0  0  0
  4  3  2  0  0  0  0
  5  4  1  0  0  0  0
  5  1  1  0  0  0  0
  6  1  1  0  0  0  0
  6  7  2  0  0  0  0
  6  9  1  0  0  0  0
  8  6  2  0  0  0  0
  9 10  1  0  0  0  0
  9 11  1  0  0  0  0
 12 13  1  0  0  0  0
 13 14  1  0  0  0  0
 15 12  1  0  0  0  0
 16 15  1  0  0  0  0
M  END
>  <REMARK>
  5 active torsions:
  status: ('A' for Active; 'I' for Inactive)
    1  A    between atoms: N_2  and  S_3 
    2  A    between atoms: S_3  and  C_6 
    3  A    between atoms: C_8  and  C_9 
    4  A    between atoms: C_9  and  O_10 
    5  A    between atoms: C_9  and  O_11 

>  <TORSDO>
F 5

$$$$
C:\Users\siddh\.mgltools\PyRx\Ligands\ZINC000082377218_uff_E=540.58.pdbqt
 OpenBabel04182118313D

 16 16  0  0  1  0  0  0  0  0999 V2000
    0.0010   -0.1860    0.2410 O   0  0  0  0  0  0  0  0  0  0  0  0
   -0.0260    1.1540    0.1000 C   0  0  0  0  0  3  0  0  0  0  0  0
    0.0520   -1.0840    0.5050 H   0  0  0  0  0  0  0  0  0  0  0  0
    1.1340    1.8340    0.0150 O   0  0  0  0  0  0  0  0  0  0  0  0
    1.1240    2.7660   -0.0830 H   0  0  0  0  0  0  0  0  0  0  0  0
   -1.3410    1.9000    0.0360 C   0  0  2  0  0  3  0  0  0  0  0  0
   -2.4400    1.0420    0.2410 O   0  0  0  0  0  0  0  0  0  0  0  0
   -2.3890    0.3000   -0.4150 H   0  0  0  0  0  0  0  0  0  0  0  0
   -1.4810    2.7140   -1.2830 C   0  0  0  0  0  3  0  0  0  0  0  0
   -2.7540    3.6140   -1.2040 C   0  0  0  0  0  2  0  0  0  0  0  0
   -2.8780    4.6090   -2.3650 C   0  0  0  0  0  2  0  0  0  0  0  0
   -2.7870    3.6780   -3.8990 S   0  0  0  0  0  0  0  0  0  0  0  0
   -1.4320    2.5010   -3.8680 C   0  0  0  0  0  2  0  0  0  0  0  0
   -2.6940    4.6070   -5.1180 O   0  0  0  0  0  0  0  0  0  0  0  0
   -4.1130    2.9420   -4.1450 O   0  0  0  0  0  0  0  0  0  0  0  0
   -1.4900    1.7650   -2.5280 C   0  0  0  0  0  2  0  0  0  0  0  0
  1  3  1  0  0  0  0
  2  1  1  0  0  0  0
  4  2  1  0  0  0  0
  5  4  1  0  0  0  0
  6  2  1  6  0  0  0
  6  7  1  0  0  0  0
  8  7  1  0  0  0  0
  9 10  1  0  0  0  0
  9  6  1  0  0  0  0
 11 10  1  0  0  0  0
 12 13  1  0  0  0  0
 12 11  1  0  0  0  0
 13 16  1  0  0  0  0
 14 12  2  0  0  0  0
 15 12  2  0  0  0  0
 16  9  1  0  0  0  0
M  END
>  <REMARK>
  4 active torsions:
  status: ('A' for Active; 'I' for Inactive)
    1  A    between atoms: C_2  and  O_3 
    2  A    between atoms: C_2  and  C_4 
    3  A    between atoms: C_4  and  O_5 
    4  A    between atoms: C_4  and  C_6 

>  <TORSDO>
F 4

$$$$
C:\Users\siddh\.mgltools\PyRx\Ligands\ZINC000082377217_uff_E=540.83.pdbqt
 OpenBabel04182118313D

 16 16  0  0  1  0  0  0  0  0999 V2000
   -1.5030    2.8970    1.1910 C   0  0  0  0  0  3  0  0  0  0  0  0
   -0.3620    3.9630    1.1630 C   0  0  0  0  0  2  0  0  0  0  0  0
   -0.2960    4.8260    2.4300 C   0  0  0  0  0  2  0  0  0  0  0  0
   -1.9160    5.5600    2.6790 S   0  0  0  0  0  0  0  0  0  0  0  0
   -2.0090    6.2780    4.0340 O   0  0  0  0  0  0  0  0  0  0  0  0
   -2.1290    6.7100    1.6820 O   0  0  0  0  0  0  0  0  0  0  0  0
   -3.2220    4.3420    2.4930 C   0  0  0  0  0  2  0  0  0  0  0  0
   -2.9290    3.5430    1.2210 C   0  0  0  0  0  2  0  0  0  0  0  0
   -1.3510    1.9440   -0.0290 C   0  0  1  0  0  3  0  0  0  0  0  0
   -2.2970    0.7660    0.0570 C   0  0  0  0  0  3  0  0  0  0  0  0
   -3.1960    0.5290   -0.9170 O   0  0  0  0  0  0  0  0  0  0  0  0
   -3.6090    1.2410   -1.3640 H   0  0  0  0  0  0  0  0  0  0  0  0
   -2.2380   -0.0610    1.1200 O   0  0  0  0  0  0  0  0  0  0  0  0
   -1.6150    0.0970    1.8020 H   0  0  0  0  0  0  0  0  0  0  0  0
   -1.4820    2.6340   -1.2510 O   0  0  0  0  0  0  0  0  0  0  0  0
   -2.4340    2.8860   -1.3710 H   0  0  0  0  0  0  0  0  0  0  0  0
  1  8  1  0  0  0  0
  2  1  1  0  0  0  0
  2  3  1  0  0  0  0
  3  4  1  0  0  0  0
  4  5  2  0  0  0  0
  6  4  2  0  0  0  0
  7  4  1  0  0  0  0
  8  7  1  0  0  0  0
  9 15  1  6  0  0  0
  9 10  1  0  0  0  0
  9  1  1  0  0  0  0
 10 13  1  0  0  0  0
 11 10  1  0  0  0  0
 12 11  1  0  0  0  0
 13 14  1  0  0  0  0
 16 15  1  0  0  0  0
M  END
>  <REMARK>
  5 active torsions:
  status: ('A' for Active; 'I' for Inactive)
    1  A    between atoms: O_1  and  C_2 
    2  A    between atoms: C_2  and  O_3 
    3  A    between atoms: C_2  and  C_4 
    4  A    between atoms: C_4  and  O_5 
    5  A    between atoms: C_4  and  C_6 

>  <TORSDO>
F 5

$$$$
C:\Users\siddh\.mgltools\PyRx\Ligands\ZINC000082292990_uff_E=286.23.pdbqt
 OpenBabel04182118313D

 19 20  0  0  1  0  0  0  0  0999 V2000
    0.0920   -0.1360   -0.1070 O   0  0  0  0  0  0  0  0  0  0  0  0
    0.0430    1.2120   -0.0990 C   0  0  0  0  0  3  0  0  0  0  0  0
    0.1850   -1.0680   -0.1220 H   0  0  0  0  0  0  0  0  0  0  0  0
    1.1910    1.9150   -0.1280 O   0  0  0  0  0  0  0  0  0  0  0  0
    1.1660    2.8520   -0.1230 H   0  0  0  0  0  0  0  0  0  0  0  0
   -1.2720    1.9430   -0.0340 C   0  0  0  0  0  2  0  0  0  0  0  0
   -2.4730    0.9800   -0.0050 C   0  0  0  0  0  2  0  0  0  0  0  0
   -3.8500    1.6800    0.1200 C   0  0  1  0  0  3  0  0  0  0  0  0
   -5.0020    0.7050    0.0010 C   0  0  0  0  0  0  0  0  0  0  0  0
   -6.2350    1.0820    0.4390 N   0  0  0  0  0  0  0  0  0  0  0  0
   -4.8210   -0.4240   -0.4360 O   0  0  0  0  0  0  0  0  0  0  0  0
   -6.4580    2.3100    1.1750 C   0  0  2  0  0  3  0  0  0  0  0  0
   -7.3350    0.1490    0.5470 C   0  0  0  0  0  2  0  0  0  0  0  0
   -5.1930    2.8430    1.8100 C   0  0  0  0  0  0  0  0  0  0  0  0
   -7.4750    1.8290    2.2150 C   0  0  0  0  0  2  0  0  0  0  0  0
   -3.9760    2.4270    1.3680 N   0  0  0  0  0  0  0  0  0  0  0  0
   -5.2650    3.6260    2.7460 O   0  0  0  0  0  0  0  0  0  0  0  0
   -3.1360    2.7450    1.8700 H   0  0  0  0  0  0  0  0  0  0  0  0
   -8.3670    0.9300    1.3600 C   0  0  0  0  0  2  0  0  0  0  0  0
  1  2  1  0  0  0  0
  2  6  1  0  0  0  0
  3  1  1  0  0  0  0
  4  5  1  0  0  0  0
  4  2  1  0  0  0  0
  6  7  1  0  0  0  0
  8  7  1  1  0  0  0
  8 16  1  0  0  0  0
  9  8  1  0  0  0  0
  9 10  1  0  0  0  0
 10 13  1  0  0  0  0
 10 12  1  0  0  0  0
 11  9  2  0  0  0  0
 12 14  1  0  0  0  0
 12 15  1  1  0  0  0
 13 19  1  0  0  0  0
 14 17  2  0  0  0  0
 16 14  1  0  0  0  0
 16 18  1  0  0  0  0
 19 15  1  0  0  0  0
M  END
>  <REMARK>
  4 active torsions:
  status: ('A' for Active; 'I' for Inactive)
    1  A    between atoms: C_2  and  O_3 
    2  A    between atoms: C_2  and  C_4 
    3  A    between atoms: C_4  and  C_5 
    4  A    between atoms: C_5  and  C_6 

>  <TORSDO>
F 4

$$$$
C:\Users\siddh\.mgltools\PyRx\Ligands\ZINC000082292988_uff_E=383.56.pdbqt
 OpenBabel04182118313D

 19 20  0  0  1  0  0  0  0  0999 V2000
   -0.0110   -0.1470   -0.0610 O   0  0  0  0  0  0  0  0  0  0  0  0
   -0.0570    1.2000   -0.0170 C   0  0  0  0  0  3  0  0  0  0  0  0
    0.0760   -1.0760   -0.1430 H   0  0  0  0  0  0  0  0  0  0  0  0
    1.0920    1.9010   -0.0050 O   0  0  0  0  0  0  0  0  0  0  0  0
    1.0690    2.8380    0.0250 H   0  0  0  0  0  0  0  0  0  0  0  0
   -1.3720    1.9330    0.0240 C   0  0  0  0  0  2  0  0  0  0  0  0
   -2.5830    0.9850   -0.0000 C   0  0  0  0  0  2  0  0  0  0  0  0
   -3.9320    1.7460    0.0450 C   0  0  1  0  0  3  0  0  0  0  0  0
   -5.0410    0.7310   -0.0080 C   0  0  0  0  0  0  0  0  0  0  0  0
   -5.3510    0.0380    1.1240 N   0  0  0  0  0  0  0  0  0  0  0  0
   -5.6270    0.5120   -1.0600 O   0  0  0  0  0  0  0  0  0  0  0  0
   -4.8850    0.4470    2.4300 C   0  0  1  0  0  3  0  0  0  0  0  0
   -6.3690   -0.9690    1.2190 C   0  0  0  0  0  2  0  0  0  0  0  0
   -4.3320    1.8620    2.4510 C   0  0  0  0  0  0  0  0  0  0  0  0
   -6.1610    0.2860    3.2910 C   0  0  0  0  0  2  0  0  0  0  0  0
   -4.0160    2.4950    1.2880 N   0  0  0  0  0  0  0  0  0  0  0  0
   -4.1830    2.4420    3.5180 O   0  0  0  0  0  0  0  0  0  0  0  0
   -3.6770    3.4680    1.3090 H   0  0  0  0  0  0  0  0  0  0  0  0
   -7.1800   -0.4570    2.3940 C   0  0  0  0  0  2  0  0  0  0  0  0
  1  2  1  0  0  0  0
  2  4  1  0  0  0  0
  2  6  1  0  0  0  0
  3  1  1  0  0  0  0
  4  5  1  0  0  0  0
  7  6  1  0  0  0  0
  8  7  1  1  0  0  0
  8 16  1  0  0  0  0
  9  8  1  0  0  0  0
  9 10  1  0  0  0  0
 10 13  1  0  0  0  0
 10 12  1  0  0  0  0
 11  9  2  0  0  0  0
 12 14  1  0  0  0  0
 12 15  1  1  0  0  0
 13 19  1  0  0  0  0
 14 17  2  0  0  0  0
 16 18  1  0  0  0  0
 16 14  1  0  0  0  0
 19 15  1  0  0  0  0
M  END
>  <REMARK>
  4 active torsions:
  status: ('A' for Active; 'I' for Inactive)
    1  A    between atoms: C_2  and  O_3 
    2  A    between atoms: C_2  and  C_4 
    3  A    between atoms: C_4  and  C_5 
    4  A    between atoms: C_5  and  C_6 

>  <TORSDO>
F 4

$$$$
C:\Users\siddh\.mgltools\PyRx\Ligands\ZINC000082292986_uff_E=273.96.pdbqt
 OpenBabel04182118313D

 19 20  0  0  1  0  0  0  0  0999 V2000
    0.1130   -0.1340    0.0210 O   0  0  0  0  0  0  0  0  0  0  0  0
    0.0300    1.2110    0.0130 C   0  0  0  0  0  3  0  0  0  0  0  0
    0.2700   -1.0580    0.0350 H   0  0  0  0  0  0  0  0  0  0  0  0
    1.1590    1.9450    0.0160 O   0  0  0  0  0  0  0  0  0  0  0  0
    1.1090    2.8810    0.0110 H   0  0  0  0  0  0  0  0  0  0  0  0
   -1.3040    1.9070   -0.0020 C   0  0  0  0  0  2  0  0  0  0  0  0
   -2.4880    0.9240    0.0020 C   0  0  0  0  0  2  0  0  0  0  0  0
   -3.8440    1.6560    0.0120 C   0  0  2  0  0  3  0  0  0  0  0  0
   -4.9650    0.6520    0.0920 C   0  0  0  0  0  0  0  0  0  0  0  0
   -5.4410    0.0890   -1.0530 N   0  0  0  0  0  0  0  0  0  0  0  0
   -5.4890    0.4070    1.1690 O   0  0  0  0  0  0  0  0  0  0  0  0
   -4.9990    0.5080   -2.3660 C   0  0  2  0  0  3  0  0  0  0  0  0
   -6.6420   -0.7140   -1.0860 C   0  0  0  0  0  2  0  0  0  0  0  0
   -4.4240    1.9090   -2.3580 C   0  0  0  0  0  0  0  0  0  0  0  0
   -6.3050    0.3970   -3.1580 C   0  0  0  0  0  2  0  0  0  0  0  0
   -3.9870    2.4620   -1.1930 N   0  0  0  0  0  0  0  0  0  0  0  0
   -4.3460    2.5420   -3.4010 O   0  0  0  0  0  0  0  0  0  0  0  0
   -3.6010    3.4190   -1.2010 H   0  0  0  0  0  0  0  0  0  0  0  0
   -6.8910   -0.8920   -2.5830 C   0  0  0  0  0  2  0  0  0  0  0  0
  1  3  1  0  0  0  0
  2  4  1  0  0  0  0
  2  1  1  0  0  0  0
  5  4  1  0  0  0  0
  6  7  1  0  0  0  0
  6  2  1  0  0  0  0
  8  7  1  6  0  0  0
  8  9  1  0  0  0  0
  9 11  2  0  0  0  0
 10  9  1  0  0  0  0
 12 15  1  6  0  0  0
 12 14  1  0  0  0  0
 12 10  1  0  0  0  0
 13 10  1  0  0  0  0
 14 16  1  0  0  0  0
 15 19  1  0  0  0  0
 16  8  1  0  0  0  0
 17 14  2  0  0  0  0
 18 16  1  0  0  0  0
 19 13  1  0  0  0  0
M  END
>  <REMARK>
  4 active torsions:
  status: ('A' for Active; 'I' for Inactive)
    1  A    between atoms: C_2  and  O_3 
    2  A    between atoms: C_2  and  C_4 
    3  A    between atoms: C_4  and  C_5 
    4  A    between atoms: C_5  and  C_6 

>  <TORSDO>
F 4

$$$$
C:\Users\siddh\.mgltools\PyRx\Ligands\ZINC000079006733_uff_E=468.33.pdbqt
 OpenBabel04182118313D

 18 18  0  0  0  0  0  0  0  0999 V2000
   -0.8550   -0.5170   -1.4730 C   0  0  0  0  0  0  0  0  0  0  0  0
   -2.2290   -0.7540   -1.4560 C   0  0  0  0  0  3  0  0  0  0  0  0
   -2.8740   -1.1800   -2.6160 C   0  0  0  0  0  3  0  0  0  0  0  0
   -2.1260   -1.3670   -3.7900 C   0  0  0  0  0  0  0  0  0  0  0  0
   -0.7840   -1.1370   -3.7780 N   0  0  0  0  0  0  0  0  0  0  0  0
   -0.2490   -1.2800   -4.6340 H   0  0  0  0  0  0  0  0  0  0  0  0
   -0.1380   -0.7200   -2.6560 C   0  0  0  0  0  3  0  0  0  0  0  0
   -0.0260    0.0510    0.0080 S   0  0  0  0  0  0  0  0  0  0  0  0
    1.4350   -0.4170    0.0900 O   0  0  0  0  0  0  0  0  0  0  0  0
   -0.6210   -0.5680    1.2810 O   0  0  0  0  0  0  0  0  0  0  0  0
    0.0110    1.7890    0.3300 N   0  0  0  0  0  0  0  0  0  0  0  0
    0.8520    2.2110   -0.1240 H   0  0  0  0  0  0  0  0  0  0  0  0
   -0.8550    2.2180   -0.0690 H   0  0  0  0  0  0  0  0  0  0  0  0
   -2.7750   -1.8050   -5.0380 C   0  0  0  0  0  0  0  0  0  0  0  0
   -4.1020   -2.0330   -5.0780 O   0  0  0  0  0  0  0  0  0  0  0  0
   -4.5050   -2.3110   -5.8770 H   0  0  0  0  0  0  0  0  0  0  0  0
   -2.0390   -1.9720   -6.1540 O   0  0  0  0  0  0  0  0  0  0  0  0
   -1.1150   -1.8150   -6.1330 H   0  0  0  0  0  0  0  0  0  0  0  0
  1  2  1  0  0  0  0
  1  8  1  0  0  0  0
  3  2  2  0  0  0  0
  4  5  1  0  0  0  0
  4  3  1  0  0  0  0
  5  7  1  0  0  0  0
  6  5  1  0  0  0  0
  7  1  2  0  0  0  0
  8  9  2  0  0  0  0
  8 11  1  0  0  0  0
  8 10  2  0  0  0  0
 12 11  1  0  0  0  0
 13 11  1  0  0  0  0
 14  4  2  0  0  0  0
 15 14  1  0  0  0  0
 16 15  1  0  0  0  0
 17 18  1  0  0  0  0
 17 14  1  0  0  0  0
M  END
>  <REMARK>
  5 active torsions:
  status: ('A' for Active; 'I' for Inactive)
    1  A    between atoms: N_1  and  S_2 
    2  A    between atoms: S_2  and  C_5 
    3  A    between atoms: C_8  and  C_9 
    4  A    between atoms: C_9  and  O_10 
    5  A    between atoms: C_9  and  O_11 

>  <TORSDO>
F 5

$$$$
C:\Users\siddh\.mgltools\PyRx\Ligands\ZINC000078210694_uff_E=652.43.pdbqt
 OpenBabel04182118313D

 19 19  0  0  0  0  0  0  0  0999 V2000
   -0.0390    1.4690    0.0970 C   0  0  0  0  0  1  0  0  0  0  0  0
   -0.0230   -0.0260    0.0330 C   0  0  0  0  0  0  0  0  0  0  0  0
    0.0050   -0.7970   -1.1160 C   0  0  0  0  0  0  0  0  0  0  0  0
    0.0350   -2.1230   -0.7000 C   0  0  0  0  0  0  0  0  0  0  0  0
    0.0830   -3.3500   -1.5640 C   0  0  0  0  0  1  0  0  0  0  0  0
    0.0230   -2.0960    0.6910 C   0  0  0  0  0  0  0  0  0  0  0  0
   -0.0170   -0.8180    1.1230 N   0  0  0  0  0  0  0  0  0  0  0  0
   -0.0310   -0.4990    2.1170 H   0  0  0  0  0  0  0  0  0  0  0  0
    0.0470   -0.1610   -2.8020 S   0  0  0  0  0  0  0  0  0  0  0  0
   -0.5980   -1.0820   -3.8490 O   0  0  0  0  0  0  0  0  0  0  0  0
   -0.7820    1.1210   -2.9670 O   0  0  0  0  0  0  0  0  0  0  0  0
    1.6370    0.2580   -3.4500 N   0  0  0  0  0  0  0  0  0  0  0  0
    1.8800   -0.4210   -4.2060 H   0  0  0  0  0  0  0  0  0  0  0  0
    2.3330    0.1400   -2.6800 H   0  0  0  0  0  0  0  0  0  0  0  0
    0.0520   -3.2520    1.6120 C   0  0  0  0  0  3  0  0  0  0  0  0
    0.0260   -3.0500    2.9430 O   0  0  0  0  0  0  0  0  0  0  0  0
    0.0440   -3.7820    3.5280 H   0  0  0  0  0  0  0  0  0  0  0  0
    0.1080   -4.5110    1.1360 O   0  0  0  0  0  0  0  0  0  0  0  0
    0.1270   -4.6620    0.2120 H   0  0  0  0  0  0  0  0  0  0  0  0
  2  1  1  0  0  0  0
  2  7  1  0  0  0  0
  3  4  1  0  0  0  0
  3  2  2  0  0  0  0
  4  6  2  0  0  0  0
  5  4  1  0  0  0  0
  6  7  1  0  0  0  0
  6 15  1  0  0  0  0
  7  8  1  0  0  0  0
  9  3  1  0  0  0  0
 10  9  2  0  0  0  0
 11  9  2  0  0  0  0
 12  9  1  0  0  0  0
 12 14  1  0  0  0  0
 13 12  1  0  0  0  0
 15 16  1  0  0  0  0
 16 17  1  0  0  0  0
 18 15  1  0  0  0  0
 19 18  1  0  0  0  0
M  END
>  <REMARK>
  5 active torsions:
  status: ('A' for Active; 'I' for Inactive)
    1  A    between atoms: C_3  and  S_4 
    2  A    between atoms: S_4  and  N_5 
    3  A    between atoms: C_10  and  C_11 
    4  A    between atoms: C_11  and  O_12 
    5  A    between atoms: C_11  and  O_13 

>  <TORSDO>
F 5

$$$$
C:\Users\siddh\.mgltools\PyRx\Ligands\ZINC000078210627_uff_E=402.98.pdbqt
 OpenBabel04182118313D

 22 23  0  0  1  0  0  0  0  0999 V2000
    0.0910   -3.2110   -1.6510 C   0  0  2  0  0  3  0  0  0  0  0  0
   -1.2970   -3.8830   -1.6200 C   0  0  0  0  0  2  0  0  0  0  0  0
   -1.2810   -5.1300   -2.4110 N   0  0  0  0  0  0  0  0  0  0  0  0
   -0.1810   -6.0150   -1.9740 C   0  0  0  0  0  2  0  0  0  0  0  0
    1.1420   -5.2410   -2.0210 C   0  0  0  0  0  2  0  0  0  0  0  0
    1.0870   -4.1020   -1.1820 O   0  0  0  0  0  0  0  0  0  0  0  0
    0.0620   -2.0070   -0.7570 C   0  0  1  0  0  3  0  0  0  0  0  0
    0.2070   -0.7330   -1.1830 N   0  0  0  0  0  0  0  0  0  0  0  0
    0.0450   -0.0160   -0.0530 C   0  0  1  0  0  3  0  0  0  0  0  0
    0.3930   -0.3960   -2.1280 H   0  0  0  0  0  0  0  0  0  0  0  0
    0.0690    1.4750    0.0080 C   0  0  0  0  0  1  0  0  0  0  0  0
   -0.1710   -0.8170    1.0040 N   0  0  0  0  0  0  0  0  0  0  0  0
   -0.1640   -2.0630    0.5710 N   0  0  0  0  0  0  0  0  0  0  0  0
   -0.3280   -0.5330    1.9960 H   0  0  0  0  0  0  0  0  0  0  0  0
   -0.3020   -2.9040    1.1310 H   0  0  0  0  0  0  0  0  0  0  0  0
   -2.6300   -5.7580   -2.5220 C   0  0  1  0  0  3  0  0  0  0  0  0
   -2.6290   -6.9100   -3.5400 C   0  0  0  0  0  1  0  0  0  0  0  0
   -3.2400   -6.2420   -1.2140 C   0  0  0  0  0  3  0  0  0  0  0  0
   -2.5710   -6.1820   -0.0470 O   0  0  0  0  0  0  0  0  0  0  0  0
   -2.9750   -6.4890    0.7410 H   0  0  0  0  0  0  0  0  0  0  0  0
   -4.4920   -6.7400   -1.2180 O   0  0  0  0  0  0  0  0  0  0  0  0
   -4.9740   -6.7900   -2.0210 H   0  0  0  0  0  0  0  0  0  0  0  0
  1  2  1  1  0  0  0
  1  6  1  0  0  0  0
  1  7  1  0  0  0  0
  3  4  1  0  0  0  0
  3  2  1  0  0  0  0
  5  4  1  0  0  0  0
  5  6  1  0  0  0  0
  7  8  1  6  0  0  0
  7 13  1  0  0  0  0
  8  9  1  0  0  0  0
  9 11  1  6  0  0  0
  9 12  1  0  0  0  0
 10  8  1  0  0  0  0
 12 14  1  0  0  0  0
 13 12  1  0  0  0  0
 13 15  1  0  0  0  0
 16 17  1  6  0  0  0
 16  3  1  0  0  0  0
 16 18  1  0  0  0  0
 18 19  1  0  0  0  0
 19 20  1  0  0  0  0
 21 18  1  0  0  0  0
 22 21  1  0  0  0  0
M  END
>  <REMARK>
  5 active torsions:
  status: ('A' for Active; 'I' for Inactive)
    1  A    between atoms: C_5  and  C_6 
    2  A    between atoms: N_8  and  C_9 
    3  A    between atoms: C_9  and  C_11 
    4  A    between atoms: C_11  and  O_12 
    5  A    between atoms: C_11  and  O_13 

>  <TORSDO>
F 5

$$$$
C:\Users\siddh\.mgltools\PyRx\Ligands\ZINC000077101491_uff_E=702.47.pdbqt
 OpenBabel04182118313D

 19 20  0  0  1  0  0  0  0  0999 V2000
   -1.2530    1.8610    0.0320 C   0  0  1  0  0  3  0  0  0  0  0  0
   -2.3960    1.5170    1.0330 C   0  0  0  0  0  2  0  0  0  0  0  0
   -2.5190    2.9200    1.2090 N   0  0  0  0  0  0  0  0  0  0  0  0
   -3.4760    3.6160    1.8860 C   0  0  0  0  0  0  0  0  0  0  0  0
   -4.3780    2.9990    2.4380 O   0  0  0  0  0  0  0  0  0  0  0  0
   -1.3840    3.3520    0.4690 C   0  0  0  0  0  2  0  0  0  0  0  0
   -3.4930    5.1060    1.9200 C   0  0  0  0  0  0  0  0  0  0  0  0
   -2.4560    5.8240    1.4040 N   0  0  0  0  0  0  0  0  0  0  0  0
   -2.4630    7.1820    1.4030 C   0  0  0  0  0  3  0  0  0  0  0  0
   -1.6560    5.3290    1.0090 H   0  0  0  0  0  0  0  0  0  0  0  0
   -3.5570    7.8640    1.9320 C   0  0  0  0  0  3  0  0  0  0  0  0
   -4.5970    7.1610    2.4490 N   0  0  0  0  0  0  0  0  0  0  0  0
   -4.5900    5.8020    2.4590 C   0  0  0  0  0  3  0  0  0  0  0  0
   -5.3980    7.6610    2.8360 H   0  0  0  0  0  0  0  0  0  0  0  0
    0.0590    1.1590    0.2050 C   0  0  0  0  0  3  0  0  0  0  0  0
    0.1410   -0.1640   -0.0350 O   0  0  0  0  0  0  0  0  0  0  0  0
    0.2860   -0.9850   -0.4620 H   0  0  0  0  0  0  0  0  0  0  0  0
    1.1670    1.8450    0.5440 O   0  0  0  0  0  0  0  0  0  0  0  0
    1.1150    2.7650    0.7120 H   0  0  0  0  0  0  0  0  0  0  0  0
  1 15  1  1  0  0  0
  1  6  1  0  0  0  0
  1  2  1  0  0  0  0
  2  3  1  0  0  0  0
  3  4  1  0  0  0  0
  4  7  1  0  0  0  0
  4  5  2  0  0  0  0
  6  3  1  0  0  0  0
  7 13  2  0  0  0  0
  8  7  1  0  0  0  0
  9  8  1  0  0  0  0
  9 11  2  0  0  0  0
 10  8  1  0  0  0  0
 11 12  1  0  0  0  0
 12 13  1  0  0  0  0
 12 14  1  0  0  0  0
 15 18  1  0  0  0  0
 16 15  1  0  0  0  0
 17 16  1  0  0  0  0
 18 19  1  0  0  0  0
M  END
>  <REMARK>
  4 active torsions:
  status: ('A' for Active; 'I' for Inactive)
    1  A    between atoms: O_1  and  C_2 
    2  A    between atoms: C_2  and  O_3 
    3  A    between atoms: C_2  and  C_4 
       I    between atoms: N_6  and  C_7 
    4  A    between atoms: C_7  and  C_9 

>  <TORSDO>
F 4

$$$$
C:\Users\siddh\.mgltools\PyRx\Ligands\ZINC000075259713_uff_E=453.98.pdbqt
 OpenBabel04182118313D

 17 17  0  0  0  0  0  0  0  0999 V2000
    0.0010    0.0570    0.0110 C   0  0  0  0  0  0  0  0  0  0  0  0
   -1.2030   -0.6630    0.0130 C   0  0  0  0  0  3  0  0  0  0  0  0
   -1.1820   -2.0570    0.0030 C   0  0  0  0  0  3  0  0  0  0  0  0
    0.0390   -2.7340   -0.0060 C   0  0  0  0  0  0  0  0  0  0  0  0
    1.2420   -2.0240   -0.0100 C   0  0  0  0  0  3  0  0  0  0  0  0
    1.2250   -0.6300   -0.0000 C   0  0  0  0  0  3  0  0  0  0  0  0
    0.0630   -4.5050   -0.0700 S   0  0  0  0  0  0  0  0  0  0  0  0
    1.2830   -5.1360    0.6180 O   0  0  0  0  0  0  0  0  0  0  0  0
   -1.1330   -5.1690    0.6290 O   0  0  0  0  0  0  0  0  0  0  0  0
    0.0640   -5.1240   -1.7090 N   0  0  0  0  0  0  0  0  0  0  0  0
    0.0520   -4.4870   -2.4600 H   0  0  0  0  0  0  0  0  0  0  0  0
    0.0810   -6.4680   -1.9800 N   0  0  0  0  0  0  0  0  0  0  0  0
    0.0960   -7.2650   -1.0910 O   0  0  0  0  0  0  0  0  0  0  0  0
    0.0810   -6.8420   -3.1120 O   0  0  0  0  0  0  0  0  0  0  0  0
   -0.0180    1.4710    0.0140 N   0  0  0  0  0  0  0  0  0  0  0  0
    0.8640    2.0040    0.0070 H   0  0  0  0  0  0  0  0  0  0  0  0
   -0.9130    1.9790    0.0180 H   0  0  0  0  0  0  0  0  0  0  0  0
  1  2  1  0  0  0  0
  1 15  1  0  0  0  0
  3  2  2  0  0  0  0
  4  3  1  0  0  0  0
  5  4  2  0  0  0  0
  5  6  1  0  0  0  0
  6  1  2  0  0  0  0
  7  4  1  0  0  0  0
  7  8  2  0  0  0  0
  7  9  2  0  0  0  0
 10  7  1  0  0  0  0
 11 10  1  0  0  0  0
 12 10  1  0  0  0  0
 12 13  2  0  0  0  0
 14 12  2  0  0  0  0
 15 17  1  0  0  0  0
 16 15  1  0  0  0  0
M  END
>  <REMARK>
  4 active torsions:
  status: ('A' for Active; 'I' for Inactive)
    1  A    between atoms: N_1  and  C_2 
    2  A    between atoms: C_5  and  S_6 
    3  A    between atoms: S_6  and  N_9 
    4  A    between atoms: N_9  and  N_10 

>  <TORSDO>
F 4

$$$$
C:\Users\siddh\.mgltools\PyRx\Ligands\ZINC000075153165_uff_E=317.36.pdbqt
 OpenBabel04182118313D

 18 19  0  0  1  0  0  0  0  0999 V2000
   -0.0110   -0.0010    0.0000 C   0  0  2  0  0  3  0  0  0  0  0  0
   -1.2030   -0.7320    0.0030 C   0  0  0  0  0  0  0  0  0  0  0  0
   -2.5560   -0.4270    0.0120 C   0  0  1  0  0  3  0  0  0  0  0  0
   -3.4140    1.2840    0.0250 Br  0  0  0  0  0  0  0  0  0  0  0  0
   -3.2520   -1.5880    0.0100 N   0  0  0  0  0  0  0  0  0  0  0  0
   -4.2690   -1.6700    0.0150 H   0  0  0  0  0  0  0  0  0  0  0  0
   -2.3940   -2.6050    0.0000 N   0  0  0  0  0  0  0  0  0  0  0  0
   -1.1570   -2.0890   -0.0040 C   0  0  0  0  0  0  0  0  0  0  0  0
    0.0030   -2.7860   -0.0140 N   0  0  0  0  0  0  0  0  0  0  0  0
    0.0020   -3.8060   -0.0180 H   0  0  0  0  0  0  0  0  0  0  0  0
    1.1850   -2.0790   -0.0170 C   0  0  0  0  0  0  0  0  0  0  0  0
    2.2470   -2.6760   -0.0260 O   0  0  0  0  0  0  0  0  0  0  0  0
    1.1700   -0.6950   -0.0100 N   0  0  0  0  0  0  0  0  0  0  0  0
    2.0740   -0.1710   -0.0130 H   0  0  0  0  0  0  0  0  0  0  0  0
   -2.6260   -3.5620   -0.0030 H   0  0  0  0  0  0  0  0  0  0  0  0
    0.0030    1.4130    0.0080 N   0  0  0  0  0  0  0  0  0  0  0  0
    0.8980    1.9200    0.0050 H   0  0  0  0  0  0  0  0  0  0  0  0
   -0.8640    1.9570    0.0170 H   0  0  0  0  0  0  0  0  0  0  0  0
  1  2  1  0  0  0  0
  1 16  1  1  0  0  0
  2  3  1  0  0  0  0
  3  4  1  6  0  0  0
  5  3  1  0  0  0  0
  5  6  1  0  0  0  0
  7  5  1  0  0  0  0
  8  7  1  0  0  0  0
  8  2  2  0  0  0  0
  9  8  1  0  0  0  0
 10  9  1  0  0  0  0
 11  9  1  0  0  0  0
 11 13  1  0  0  0  0
 12 11  2  0  0  0  0
 13  1  1  0  0  0  0
 14 13  1  0  0  0  0
 15  7  1  0  0  0  0
 16 18  1  0  0  0  0
 17 16  1  0  0  0  0
M  END
>  <REMARK>
  1 active torsions:
  status: ('A' for Active; 'I' for Inactive)
    1  A    between atoms: N_1  and  C_2 

>  <TORSDO>
F 1

$$$$
C:\Users\siddh\.mgltools\PyRx\Ligands\ZINC000074934285_uff_E=1028.02.pdbqt
 OpenBabel04182118313D

 23 25  0  0  1  0  0  0  0  0999 V2000
    0.7240   -0.4840   -1.2650 N   0  0  0  0  0  0  0  0  0  0  0  0
    0.1020   -0.8430   -2.3850 N   0  0  0  0  0  2  0  0  0  0  0  0
    0.9810   -1.3140   -3.2720 N   0  0  0  0  0  0  0  0  0  0  0  0
    0.7790   -1.6510   -4.2130 H   0  0  0  0  0  0  0  0  0  0  0  0
    2.1900   -1.2550   -2.6780 C   0  0  0  0  0  0  0  0  0  0  0  0
    3.4530   -1.6530   -3.1130 C   0  0  1  0  0  3  0  0  0  0  0  0
    4.4910   -1.4950   -2.2300 N   0  0  0  0  0  0  0  0  0  0  0  0
    5.4300   -1.7780   -2.5100 H   0  0  0  0  0  0  0  0  0  0  0  0
    4.2960   -0.9640   -0.9760 C   0  0  0  0  0  2  0  0  0  0  0  0
    3.0460   -0.5840   -0.5680 N   0  0  0  0  0  0  0  0  0  0  0  0
    2.8890   -0.1960    0.3630 H   0  0  0  0  0  0  0  0  0  0  0  0
    2.0260   -0.7410   -1.4430 C   0  0  0  0  0  0  0  0  0  0  0  0
    3.6790   -2.2640   -4.3860 N   0  0  2  0  0  0  0  0  0  0  0  0
    4.9460   -2.2660   -5.0330 C   0  0  0  0  0  2  0  0  0  0  0  0
    4.1980   -1.8800   -6.3430 C   0  0  1  0  0  3  0  0  0  0  0  0
    2.8710   -2.0790   -5.5460 C   0  0  0  0  0  2  0  0  0  0  0  0
    4.4680   -0.4420   -6.7170 C   0  0  0  0  0  3  0  0  0  0  0  0
    5.7170   -0.0630   -7.0480 O   0  0  0  0  0  0  0  0  0  0  0  0
    5.8900    0.8270   -7.2810 H   0  0  0  0  0  0  0  0  0  0  0  0
    3.4720    0.4660   -6.7470 O   0  0  0  0  0  0  0  0  0  0  0  0
    2.6000    0.2120   -6.5180 H   0  0  0  0  0  0  0  0  0  0  0  0
    0.0530   -0.0010   -0.0610 C   0  0  0  0  0  2  0  0  0  0  0  0
    0.0320    1.5210   -0.0190 C   0  0  0  0  0  1  0  0  0  0  0  0
  1 22  1  0  0  0  0
  2  1  1  0  0  0  0
  3  5  1  0  0  0  0
  3  2  1  0  0  0  0
  4  3  1  0  0  0  0
  5 12  2  0  0  0  0
  6  5  1  1  0  0  0
  6  7  1  0  0  0  0
  7  9  1  0  0  0  0
  8  7  1  0  0  0  0
  9 10  1  0  0  0  0
 10 11  1  0  0  0  0
 12  1  1  0  0  0  0
 12 10  1  0  0  0  0
 13 16  1  6  0  0  0
 13  6  1  0  0  0  0
 14 13  1  0  0  0  0
 15 17  1  1  0  0  0
 15 16  1  0  0  0  0
 15 14  1  0  0  0  0
 18 17  1  0  0  0  0
 19 18  1  0  0  0  0
 20 17  1  0  0  0  0
 20 21  1  0  0  0  0
 22 23  1  0  0  0  0
M  END
>  <REMARK>
  5 active torsions:
  status: ('A' for Active; 'I' for Inactive)
    1  A    between atoms: C_2  and  N_3 
    2  A    between atoms: C_8  and  N_9 
    3  A    between atoms: C_11  and  C_12 
    4  A    between atoms: C_12  and  O_13 
    5  A    between atoms: C_12  and  O_14 

>  <TORSDO>
F 5

$$$$
C:\Users\siddh\.mgltools\PyRx\Ligands\ZINC000073641176_uff_E=563.48.pdbqt
 OpenBabel04182118313D

 16 16  0  0  0  0  0  0  0  0999 V2000
   -0.0080    1.5350   -0.0700 C   0  0  0  0  0  1  0  0  0  0  0  0
    0.0050    0.0330    0.0270 C   0  0  0  0  0  0  0  0  0  0  0  0
   -0.1480   -0.6090   -1.0820 N   0  0  0  0  0  0  0  0  0  0  0  0
   -0.2680   -0.0760   -1.9440 H   0  0  0  0  0  0  0  0  0  0  0  0
   -0.1580   -2.3400   -1.1690 S   0  0  0  0  0  0  0  0  0  0  0  0
   -1.4800   -2.8330   -1.7770 O   0  0  0  0  0  0  0  0  0  0  0  0
    1.0000   -2.8180   -2.0570 O   0  0  0  0  0  0  0  0  0  0  0  0
    0.0400   -2.9440    0.4400 N   0  0  0  0  0  0  0  0  0  0  0  0
    0.0750   -4.3690    0.6830 C   0  0  0  0  0  1  0  0  0  0  0  0
    0.1940   -2.0310    1.5180 C   0  0  0  0  0  2  0  0  0  0  0  0
    0.1840   -0.6700    1.3780 C   0  0  0  0  0  0  0  0  0  0  0  0
    0.3550    0.1330    2.6440 C   0  0  0  0  0  3  0  0  0  0  0  0
    0.4070    1.4770    2.6270 O   0  0  0  0  0  0  0  0  0  0  0  0
    0.5140    1.9520    3.4270 H   0  0  0  0  0  0  0  0  0  0  0  0
    0.4620   -0.4890    3.8350 O   0  0  0  0  0  0  0  0  0  0  0  0
    0.4300   -1.4250    3.8800 H   0  0  0  0  0  0  0  0  0  0  0  0
  1  2  1  0  0  0  0
  2 11  2  0  0  0  0
  3  2  1  0  0  0  0
  4  3  1  0  0  0  0
  5  3  1  0  0  0  0
  5  8  1  0  0  0  0
  6  5  2  0  0  0  0
  7  5  2  0  0  0  0
  8  9  1  0  0  0  0
  8 10  1  0  0  0  0
 11 10  1  0  0  0  0
 11 12  1  0  0  0  0
 12 15  1  0  0  0  0
 13 12  1  0  0  0  0
 13 14  1  0  0  0  0
 15 16  1  0  0  0  0
M  END
>  <REMARK>
  3 active torsions:
  status: ('A' for Active; 'I' for Inactive)
    1  A    between atoms: C_11  and  C_12 
    2  A    between atoms: C_12  and  O_13 
    3  A    between atoms: C_12  and  O_14 

>  <TORSDO>
F 3

$$$$
C:\Users\siddh\.mgltools\PyRx\Ligands\ZINC000072416565_uff_E=279.39.pdbqt
 OpenBabel04182118313D

 20 21  0  0  1  0  0  0  0  0999 V2000
    0.1090   -0.1140   -0.0130 O   0  0  0  0  0  0  0  0  0  0  0  0
    0.0340    1.2330    0.0010 C   0  0  0  0  0  3  0  0  0  0  0  0
    0.2510   -1.0390   -0.0390 H   0  0  0  0  0  0  0  0  0  0  0  0
    1.1670    1.9590   -0.0120 O   0  0  0  0  0  0  0  0  0  0  0  0
    1.1240    2.8950   -0.0020 H   0  0  0  0  0  0  0  0  0  0  0  0
   -1.2950    1.9350    0.0450 C   0  0  0  0  0  2  0  0  0  0  0  0
   -2.4680    0.9510    0.0590 C   0  0  1  0  0  3  0  0  0  0  0  0
   -3.7950    1.6530    0.1020 C   0  0  0  0  0  0  0  0  0  0  0  0
   -4.5070    1.3840   -0.9900 N   0  0  0  0  0  0  0  0  0  0  0  0
   -4.1950    2.3660    1.0080 O   0  0  0  0  0  0  0  0  0  0  0  0
   -3.7210    0.5310   -1.7780 C   0  0  1  0  0  3  0  0  0  0  0  0
   -5.4530    1.7430   -1.1760 H   0  0  0  0  0  0  0  0  0  0  0  0
   -2.5900    0.2630   -1.2240 N   0  0  0  0  0  0  0  0  0  0  0  0
   -4.1280   -0.0310   -3.0330 N   0  0  0  0  0  0  0  0  0  0  0  0
   -1.8770   -0.3450   -1.6250 H   0  0  0  0  0  0  0  0  0  0  0  0
   -3.2550   -0.9090   -3.7940 C   0  0  0  0  0  2  0  0  0  0  0  0
   -5.4170    0.2710   -3.6280 C   0  0  0  0  0  2  0  0  0  0  0  0
   -3.1440   -0.3510   -5.2200 C   0  0  0  0  0  2  0  0  0  0  0  0
   -4.4330   -0.1890   -5.7930 O   0  0  0  0  0  0  0  0  0  0  0  0
   -5.1710    0.7720   -5.0540 C   0  0  0  0  0  2  0  0  0  0  0  0
  1  2  1  0  0  0  0
  2  6  1  0  0  0  0
  3  1  1  0  0  0  0
  4  5  1  0  0  0  0
  4  2  1  0  0  0  0
  7  6  1  6  0  0  0
  7  8  1  0  0  0  0
  8 10  2  0  0  0  0
  9  8  1  0  0  0  0
 11 14  1  1  0  0  0
 11 13  1  0  0  0  0
 11  9  1  0  0  0  0
 12  9  1  0  0  0  0
 13  7  1  0  0  0  0
 15 13  1  0  0  0  0
 16 14  1  0  0  0  0
 17 14  1  0  0  0  0
 18 16  1  0  0  0  0
 19 18  1  0  0  0  0
 19 20  1  0  0  0  0
 20 17  1  0  0  0  0
M  END
>  <REMARK>
  3 active torsions:
  status: ('A' for Active; 'I' for Inactive)
    1  A    between atoms: C_2  and  O_3 
    2  A    between atoms: C_2  and  C_4 
    3  A    between atoms: C_4  and  C_5 
       I    between atoms: C_8  and  N_9 

>  <TORSDO>
F 3

$$$$
C:\Users\siddh\.mgltools\PyRx\Ligands\ZINC000072416564_uff_E=279.41.pdbqt
 OpenBabel04182118313D

 20 21  0  0  1  0  0  0  0  0999 V2000
    0.1080   -0.1200    0.0110 O   0  0  0  0  0  0  0  0  0  0  0  0
    0.0280    1.2270    0.0140 C   0  0  0  0  0  3  0  0  0  0  0  0
    0.2590   -1.0440    0.0040 H   0  0  0  0  0  0  0  0  0  0  0  0
    1.1590    1.9560    0.0230 O   0  0  0  0  0  0  0  0  0  0  0  0
    1.1120    2.8920    0.0260 H   0  0  0  0  0  0  0  0  0  0  0  0
   -1.3040    1.9240   -0.0080 C   0  0  0  0  0  2  0  0  0  0  0  0
   -2.4770    0.9350   -0.0340 C   0  0  2  0  0  3  0  0  0  0  0  0
   -3.8020    1.6420   -0.0520 C   0  0  0  0  0  0  0  0  0  0  0  0
   -4.5060    1.3520    1.0390 N   0  0  0  0  0  0  0  0  0  0  0  0
   -4.2010    2.3850   -0.9340 O   0  0  0  0  0  0  0  0  0  0  0  0
   -3.7200    0.4760    1.8000 C   0  0  1  0  0  3  0  0  0  0  0  0
   -5.4400    1.7280    1.2490 H   0  0  0  0  0  0  0  0  0  0  0  0
   -2.5910    0.2220    1.2350 N   0  0  0  0  0  0  0  0  0  0  0  0
   -4.0850   -0.0420    3.0860 N   0  0  0  0  0  0  0  0  0  0  0  0
   -1.8750   -0.3930    1.6220 H   0  0  0  0  0  0  0  0  0  0  0  0
   -3.2020   -0.9210    3.8340 C   0  0  0  0  0  2  0  0  0  0  0  0
   -5.3670    0.2570    3.6990 C   0  0  0  0  0  2  0  0  0  0  0  0
   -3.9950   -2.1820    4.2080 C   0  0  0  0  0  2  0  0  0  0  0  0
   -5.1830   -1.8350    4.9050 O   0  0  0  0  0  0  0  0  0  0  0  0
   -6.0320   -1.0720    4.0610 C   0  0  0  0  0  2  0  0  0  0  0  0
  1  2  1  0  0  0  0
  2  4  1  0  0  0  0
  3  1  1  0  0  0  0
  4  5  1  0  0  0  0
  6  2  1  0  0  0  0
  7  6  1  1  0  0  0
  7 13  1  0  0  0  0
  8  7  1  0  0  0  0
  8  9  1  0  0  0  0
  9 12  1  0  0  0  0
  9 11  1  0  0  0  0
 10  8  2  0  0  0  0
 11 14  1  1  0  0  0
 13 15  1  0  0  0  0
 13 11  1  0  0  0  0
 14 17  1  0  0  0  0
 14 16  1  0  0  0  0
 16 18  1  0  0  0  0
 17 20  1  0  0  0  0
 18 19  1  0  0  0  0
 20 19  1  0  0  0  0
M  END
>  <REMARK>
  3 active torsions:
  status: ('A' for Active; 'I' for Inactive)
    1  A    between atoms: C_2  and  O_3 
    2  A    between atoms: C_2  and  C_4 
    3  A    between atoms: C_4  and  C_5 
       I    between atoms: C_8  and  N_9 

>  <TORSDO>
F 3

$$$$
C:\Users\siddh\.mgltools\PyRx\Ligands\ZINC000072344450_uff_E=259.07.pdbqt
 OpenBabel04182118313D

 17 17  0  0  1  0  0  0  0  0999 V2000
   -1.1290   -2.0500   -0.0100 C   0  0  0  0  0  0  0  0  0  0  0  0
   -0.0200   -2.5660   -0.0320 O   0  0  0  0  0  0  0  0  0  0  0  0
   -2.2590   -2.8450    0.0340 N   0  0  0  0  0  0  0  0  0  0  0  0
   -3.6040   -2.2620    0.0230 C   0  0  0  0  0  2  0  0  0  0  0  0
   -4.5540   -3.0020   -0.9180 C   0  0  0  0  0  2  0  0  0  0  0  0
   -3.9050   -3.3370   -2.1330 O   0  0  0  0  0  0  0  0  0  0  0  0
   -3.4540   -4.6850   -2.1020 C   0  0  0  0  0  2  0  0  0  0  0  0
   -2.0790   -4.8340   -1.4150 C   0  0  1  0  0  3  0  0  0  0  0  0
   -2.1070   -4.3010    0.0390 C   0  0  0  0  0  2  0  0  0  0  0  0
   -1.2120   -0.5390   -0.0070 C   0  0  0  0  0  2  0  0  0  0  0  0
    0.0840    0.0200    0.0040 O   0  0  0  0  0  0  0  0  0  0  0  0
   -0.0200    1.4250    0.0130 C   0  0  0  0  0  1  0  0  0  0  0  0
   -1.6550   -6.2860   -1.4680 C   0  0  0  0  0  3  0  0  0  0  0  0
   -1.5240   -6.9010   -2.6600 O   0  0  0  0  0  0  0  0  0  0  0  0
   -1.2620   -7.8000   -2.6970 H   0  0  0  0  0  0  0  0  0  0  0  0
   -1.3870   -6.9740   -0.3390 O   0  0  0  0  0  0  0  0  0  0  0  0
   -1.4740   -6.5580    0.4950 H   0  0  0  0  0  0  0  0  0  0  0  0
  1 10  1  0  0  0  0
  1  3  1  0  0  0  0
  2  1  2  0  0  0  0
  3  9  1  0  0  0  0
  4  3  1  0  0  0  0
  5  4  1  0  0  0  0
  6  7  1  0  0  0  0
  6  5  1  0  0  0  0
  7  8  1  0  0  0  0
  8 13  1  1  0  0  0
  8  9  1  0  0  0  0
 10 11  1  0  0  0  0
 11 12  1  0  0  0  0
 13 16  1  0  0  0  0
 14 13  1  0  0  0  0
 15 14  1  0  0  0  0
 16 17  1  0  0  0  0
M  END
>  <REMARK>
  5 active torsions:
  status: ('A' for Active; 'I' for Inactive)
    1  A    between atoms: O_2  and  C_3 
    2  A    between atoms: C_3  and  C_4 
       I    between atoms: C_4  and  N_6 
    3  A    between atoms: C_11  and  C_12 
    4  A    between atoms: C_12  and  O_13 
    5  A    between atoms: C_12  and  O_14 

>  <TORSDO>
F 5

$$$$
C:\Users\siddh\.mgltools\PyRx\Ligands\ZINC000072324052_uff_E=652.49.pdbqt
 OpenBabel04182118313D

 17 17  0  0  1  0  0  0  0  0999 V2000
   -0.7920    1.8390    1.6960 C   0  0  1  0  0  3  0  0  0  0  0  0
   -0.5670    2.9860    2.3610 N   0  0  0  0  0  0  0  0  0  0  0  0
    0.0400    3.7510    2.0660 H   0  0  0  0  0  0  0  0  0  0  0  0
   -1.2840    2.9340    3.4690 N   0  0  0  0  0  0  0  0  0  0  0  0
   -1.3300    3.6460    4.1970 H   0  0  0  0  0  0  0  0  0  0  0  0
   -1.9430    1.7610    3.4540 C   0  0  1  0  0  3  0  0  0  0  0  0
   -3.0640    1.2450    4.6940 Cl  0  0  0  0  0  0  0  0  0  0  0  0
   -1.6640    1.0500    2.3470 N   0  0  0  0  0  0  0  0  0  0  0  0
   -2.0120    0.1690    2.0800 H   0  0  0  0  0  0  0  0  0  0  0  0
   -0.1850    1.5040    0.0580 S   0  0  0  0  0  0  0  0  0  0  0  0
    0.0960   -0.0020   -0.0650 O   0  0  0  0  0  0  0  0  0  0  0  0
    1.2380    2.0710   -0.0680 O   0  0  0  0  0  0  0  0  0  0  0  0
   -1.2110    2.0670   -1.3240 C   0  0  0  0  0  2  0  0  0  0  0  0
   -0.6110    1.7400   -2.6860 C   0  0  0  0  0  2  0  0  0  0  0  0
   -1.5420    2.2520   -3.7850 C   0  0  0  0  0  2  0  0  0  0  0  0
   -0.9990    1.9560   -5.0400 O   0  0  0  0  0  0  0  0  0  0  0  0
   -1.6460    2.3100   -5.7040 H   0  0  0  0  0  0  0  0  0  0  0  0
  1 10  1  6  0  0  0
  1  8  1  0  0  0  0
  1  2  1  0  0  0  0
  2  4  1  0  0  0  0
  3  2  1  0  0  0  0
  4  5  1  0  0  0  0
  6  4  1  0  0  0  0
  6  7  1  6  0  0  0
  8  6  1  0  0  0  0
  9  8  1  0  0  0  0
 11 10  2  0  0  0  0
 12 10  2  0  0  0  0
 13 10  1  0  0  0  0
 14 13  1  0  0  0  0
 15 14  1  0  0  0  0
 16 15  1  0  0  0  0
 17 16  1  0  0  0  0
M  END
>  <REMARK>
  5 active torsions:
  status: ('A' for Active; 'I' for Inactive)
    1  A    between atoms: S_2  and  C_4 
    2  A    between atoms: S_2  and  C_8 
    3  A    between atoms: C_4  and  C_5 
    4  A    between atoms: C_5  and  C_6 
    5  A    between atoms: C_6  and  O_7 

>  <TORSDO>
F 5

$$$$
C:\Users\siddh\.mgltools\PyRx\Ligands\ZINC000072324030_uff_E=441.10.pdbqt
 OpenBabel04182118313D

 23 25  0  0  1  0  0  0  0  0999 V2000
   -2.6210    5.2740    0.3960 C   0  0  0  0  0  0  0  0  0  0  0  0
   -3.8800    5.8220    0.4110 N   0  0  0  0  0  0  0  0  0  0  0  0
   -4.6720    5.2810    0.7560 H   0  0  0  0  0  0  0  0  0  0  0  0
   -4.0580    7.0640   -0.0290 N   0  0  0  0  0  0  0  0  0  0  0  0
   -5.1820    7.7450   -0.0850 N   0  0  0  0  0  0  0  0  0  0  0  0
   -6.1020    7.4110    0.2020 H   0  0  0  0  0  0  0  0  0  0  0  0
   -4.9030    8.9480   -0.5830 N   0  0  0  0  0  2  0  0  0  0  0  0
   -3.5970    9.0330   -0.8450 N   0  0  0  0  0  0  0  0  0  0  0  0
   -3.0920    9.8310   -1.2320 H   0  0  0  0  0  0  0  0  0  0  0  0
   -3.0920    7.8400   -0.4890 C   0  0  0  0  0  0  0  0  0  0  0  0
   -1.7890    7.3910   -0.5480 C   0  0  0  0  0  3  0  0  0  0  0  0
   -1.5420    6.0820   -0.0980 C   0  0  0  0  0  3  0  0  0  0  0  0
   -2.4300    3.9270    0.8930 N   0  0  0  0  0  0  0  0  0  0  0  0
   -3.5480    3.1900    1.4800 C   0  0  0  0  0  2  0  0  0  0  0  0
   -3.7570    1.8770    0.7160 C   0  0  0  0  0  2  0  0  0  0  0  0
   -2.4520    1.0710    0.6850 C   0  0  0  0  0  2  0  0  0  0  0  0
   -1.3190    1.9090    0.0520 C   0  0  1  0  0  3  0  0  0  0  0  0
   -1.1490    3.2180    0.8480 C   0  0  0  0  0  2  0  0  0  0  0  0
   -0.0170    1.1430   -0.0080 C   0  0  0  0  0  3  0  0  0  0  0  0
    0.0470   -0.1470    0.3810 O   0  0  0  0  0  0  0  0  0  0  0  0
    0.1530   -0.8220    1.0230 H   0  0  0  0  0  0  0  0  0  0  0  0
    1.0930    1.7440   -0.4780 O   0  0  0  0  0  0  0  0  0  0  0  0
    1.0610    2.6400   -0.7520 H   0  0  0  0  0  0  0  0  0  0  0  0
  1  2  1  0  0  0  0
  1 13  1  0  0  0  0
  2  3  1  0  0  0  0
  4  2  1  0  0  0  0
  5  4  1  0  0  0  0
  5  6  1  0  0  0  0
  7  5  1  0  0  0  0
  8  7  1  0  0  0  0
  8 10  1  0  0  0  0
  9  8  1  0  0  0  0
 10  4  1  0  0  0  0
 11 10  2  0  0  0  0
 11 12  1  0  0  0  0
 12  1  2  0  0  0  0
 13 14  1  0  0  0  0
 15 14  1  0  0  0  0
 16 15  1  0  0  0  0
 17 19  1  1  0  0  0
 17 16  1  0  0  0  0
 17 18  1  0  0  0  0
 18 13  1  0  0  0  0
 19 20  1  0  0  0  0
 20 21  1  0  0  0  0
 22 19  1  0  0  0  0
 23 22  1  0  0  0  0
M  END
>  <REMARK>
  4 active torsions:
  status: ('A' for Active; 'I' for Inactive)
    1  A    between atoms: O_1  and  C_2 
    2  A    between atoms: C_2  and  O_3 
    3  A    between atoms: C_2  and  C_4 
    4  A    between atoms: N_8  and  C_9 

>  <TORSDO>
F 4

$$$$
C:\Users\siddh\.mgltools\PyRx\Ligands\ZINC000072233386_uff_E=330.82.pdbqt
 OpenBabel04182118313D

 20 21  0  0  1  0  0  0  0  0999 V2000
    0.0260    0.0520    0.0060 O   0  0  0  0  0  0  0  0  0  0  0  0
    0.0290    1.2720    0.0130 C   0  0  0  0  0  0  0  0  0  0  0  0
   -1.1010    2.0000    0.0190 N   0  0  0  0  0  0  0  0  0  0  0  0
   -0.7480    3.3480    0.0320 C   0  0  0  0  0  0  0  0  0  0  0  0
    0.6200    3.4810    0.0200 C   0  0  0  0  0  0  0  0  0  0  0  0
    1.2200    4.7410    0.0180 C   0  0  0  0  0  3  0  0  0  0  0  0
    0.3950    5.8790    0.0310 C   0  0  0  0  0  3  0  0  0  0  0  0
   -1.0070    5.7400    0.0510 C   0  0  0  0  0  3  0  0  0  0  0  0
   -1.5960    4.4620    0.0550 C   0  0  0  0  0  0  0  0  0  0  0  0
    1.2860    2.1260    0.0110 C   0  0  1  0  0  3  0  0  0  0  0  0
   -2.0510    1.6080    0.0090 H   0  0  0  0  0  0  0  0  0  0  0  0
   -3.4040    4.3060    0.0820 S   0  0  0  0  0  0  0  0  0  0  0  0
   -3.9660    4.2290   -1.5470 O   0  0  0  0  0  0  0  0  0  0  0  0
   -3.5900    3.4480   -1.9830 H   0  0  0  0  0  0  0  0  0  0  0  0
   -3.8650    2.8860    0.9480 O   0  0  0  0  0  0  0  0  0  0  0  0
   -3.4990    2.1050    0.5060 H   0  0  0  0  0  0  0  0  0  0  0  0
   -4.0620    5.6890    0.8790 O   0  0  0  0  0  0  0  0  0  0  0  0
   -3.8070    6.4920    0.3980 H   0  0  0  0  0  0  0  0  0  0  0  0
    2.0360    1.9430    1.1800 O   0  0  0  0  0  0  0  0  0  0  0  0
    2.3930    1.0180    1.1410 H   0  0  0  0  0  0  0  0  0  0  0  0
  1  2  2  0  0  0  0
  2  3  1  0  0  0  0
  3  4  1  0  0  0  0
  4  9  1  0  0  0  0
  5  4  2  0  0  0  0
  6  5  1  0  0  0  0
  6  7  2  0  0  0  0
  7  8  1  0  0  0  0
  8  9  2  0  0  0  0
  9 12  1  0  0  0  0
 10  2  1  0  0  0  0
 10  5  1  0  0  0  0
 10 19  1  1  0  0  0
 11  3  1  0  0  0  0
 12 17  1  0  0  0  0
 12 15  1  0  0  0  0
 13 12  1  0  0  0  0
 14 13  1  0  0  0  0
 16 15  1  0  0  0  0
 18 17  1  0  0  0  0
 20 19  1  0  0  0  0
M  END
>  <REMARK>
  5 active torsions:
  status: ('A' for Active; 'I' for Inactive)
    1  A    between atoms: C_9  and  S_10 
    2  A    between atoms: S_10  and  O_11 
    3  A    between atoms: S_10  and  O_12 
    4  A    between atoms: S_10  and  O_13 
    5  A    between atoms: C_14  and  O_15 

>  <TORSDO>
F 5

$$$$
C:\Users\siddh\.mgltools\PyRx\Ligands\ZINC000071792691_uff_E=625.43.pdbqt
 OpenBabel04182118313D

 18 20  0  0  1  0  0  0  0  0999 V2000
    0.6670   -0.4050   -1.2530 N   0  0  0  0  0  0  0  0  0  0  0  0
    0.0020   -0.7270   -2.4890 C   0  0  0  0  0  2  0  0  0  0  0  0
    1.2020   -0.8170   -3.4390 C   0  0  1  0  0  0  0  0  0  0  0  0
    1.1560   -1.5280   -4.7390 C   0  0  0  0  0  2  0  0  0  0  0  0
    2.1710   -1.0450   -5.4100 C   0  0  0  0  0  2  0  0  0  0  0  0
    2.7920    0.0030   -4.5260 C   0  0  1  0  0  3  0  0  0  0  0  0
    1.6520    0.4680   -3.8440 O   0  0  0  0  0  0  0  0  0  0  0  0
    3.5710   -0.6650   -3.3760 C   0  0  2  0  0  3  0  0  0  0  0  0
    2.3990   -1.3210   -2.5990 C   0  0  1  0  0  3  0  0  0  0  0  0
    1.9680   -0.7540   -1.2800 C   0  0  0  0  0  0  0  0  0  0  0  0
    2.6870   -0.7070   -0.2940 O   0  0  0  0  0  0  0  0  0  0  0  0
    4.3570    0.3210   -2.5390 C   0  0  0  0  0  3  0  0  0  0  0  0
    4.3370    1.6390   -2.8200 O   0  0  0  0  0  0  0  0  0  0  0  0
    4.8280    2.2390   -2.2940 H   0  0  0  0  0  0  0  0  0  0  0  0
    5.0950   -0.1210   -1.5020 O   0  0  0  0  0  0  0  0  0  0  0  0
    5.1160   -1.0360   -1.2990 H   0  0  0  0  0  0  0  0  0  0  0  0
   -0.0270    0.0110   -0.0470 C   0  0  0  0  0  2  0  0  0  0  0  0
   -0.0470    1.5320    0.0130 C   0  0  0  0  0  1  0  0  0  0  0  0
  1 17  1  0  0  0  0
  2  1  1  0  0  0  0
  3  4  1  6  0  0  0
  3  9  1  0  0  0  0
  3  2  1  0  0  0  0
  5  4  1  0  0  0  0
  6  5  1  6  0  0  0
  6  7  1  0  0  0  0
  6  8  1  0  0  0  0
  7  3  1  0  0  0  0
  8  9  1  0  0  0  0
  8 12  1  1  0  0  0
  9 10  1  1  0  0  0
 10  1  1  0  0  0  0
 10 11  2  0  0  0  0
 12 15  1  0  0  0  0
 13 12  1  0  0  0  0
 13 14  1  0  0  0  0
 15 16  1  0  0  0  0
 17 18  1  0  0  0  0
M  END
>  <REMARK>
  4 active torsions:
  status: ('A' for Active; 'I' for Inactive)
    1  A    between atoms: C_2  and  N_3 
    2  A    between atoms: C_10  and  C_11 
    3  A    between atoms: C_11  and  O_12 
    4  A    between atoms: C_11  and  O_13 

>  <TORSDO>
F 4

$$$$
C:\Users\siddh\.mgltools\PyRx\Ligands\ZINC000071773858_uff_E=145.00.pdbqt
 OpenBabel04182118313D

 19 20  0  0  0  0  0  0  0  0999 V2000
    2.4290    1.0490   -0.0230 N   0  0  0  0  0  0  0  0  0  0  0  0
    2.9500    0.6100    1.1270 N   0  0  0  0  0  0  0  0  0  0  0  0
    2.5600    0.9390    2.0100 H   0  0  0  0  0  0  0  0  0  0  0  0
    3.9860   -0.2640    1.1450 C   0  0  0  0  0  2  0  0  0  0  0  0
    4.5190   -0.7110   -0.0610 C   0  0  0  0  0  0  0  0  0  0  0  0
    5.4500   -1.4930   -0.0720 O   0  0  0  0  0  0  0  0  0  0  0  0
    3.9860   -0.2670   -1.2370 N   0  0  0  0  0  0  0  0  0  0  0  0
    2.9390    0.6090   -1.2280 C   0  0  0  0  0  0  0  0  0  0  0  0
    2.4620    0.9910   -2.2840 O   0  0  0  0  0  0  0  0  0  0  0  0
    4.3570   -0.5790   -2.0940 H   0  0  0  0  0  0  0  0  0  0  0  0
    1.2930    1.9670    0.0230 C   0  0  0  0  0  2  0  0  0  0  0  0
   -0.0090    1.2070    0.0160 C   0  0  0  0  0  0  0  0  0  0  0  0
    0.0030   -0.0170    0.0010 O   0  0  0  0  0  0  0  0  0  0  0  0
   -1.3030    1.9320    0.0240 C   0  0  0  0  0  0  0  0  0  0  0  0
   -2.5140    1.2160    0.0270 C   0  0  0  0  0  3  0  0  0  0  0  0
   -3.7330    1.8970    0.0340 C   0  0  0  0  0  3  0  0  0  0  0  0
   -3.7560    3.2940    0.0370 C   0  0  0  0  0  3  0  0  0  0  0  0
   -2.5600    4.0130    0.0320 C   0  0  0  0  0  3  0  0  0  0  0  0
   -1.3400    3.3400    0.0260 C   0  0  0  0  0  3  0  0  0  0  0  0
  1 11  1  0  0  0  0
  1  2  1  0  0  0  0
  2  4  1  0  0  0  0
  2  3  1  0  0  0  0
  5  4  1  0  0  0  0
  6  5  2  0  0  0  0
  7  8  1  0  0  0  0
  7  5  1  0  0  0  0
  8  1  1  0  0  0  0
  9  8  2  0  0  0  0
 10  7  1  0  0  0  0
 12 11  1  0  0  0  0
 12 14  1  0  0  0  0
 13 12  2  0  0  0  0
 14 19  2  0  0  0  0
 14 15  1  0  0  0  0
 15 16  2  0  0  0  0
 16 17  1  0  0  0  0
 18 17  2  0  0  0  0
 19 18  1  0  0  0  0
M  END
>  <REMARK>
  3 active torsions:
  status: ('A' for Active; 'I' for Inactive)
    1  A    between atoms: C_2  and  C_3 
    2  A    between atoms: C_2  and  C_13 
    3  A    between atoms: C_3  and  N_4 

>  <TORSDO>
F 3

$$$$
C:\Users\siddh\.mgltools\PyRx\Ligands\ZINC000071770822_uff_E=521.71.pdbqt
 OpenBabel04182118313D

 21 21  0  0  0  0  0  0  0  0999 V2000
   -0.0080    0.0670   -0.0330 C   0  0  0  0  0  0  0  0  0  0  0  0
   -1.1960   -0.6790    0.0710 C   0  0  0  0  0  3  0  0  0  0  0  0
   -1.1750   -2.0710    0.0990 C   0  0  0  0  0  0  0  0  0  0  0  0
   -2.3410   -2.7560    0.2140 F   0  0  0  0  0  0  0  0  0  0  0  0
    0.0370   -2.7510    0.0210 C   0  0  0  0  0  0  0  0  0  0  0  0
    1.2310   -2.0370   -0.0980 C   0  0  0  0  0  3  0  0  0  0  0  0
    1.2460   -0.6250   -0.1240 C   0  0  0  0  0  0  0  0  0  0  0  0
    0.0750   -4.5430    0.1080 S   0  0  0  0  0  0  0  0  0  0  0  0
   -0.8560   -5.2250   -0.9060 O   0  0  0  0  0  0  0  0  0  0  0  0
    1.4460   -5.1250   -0.2660 O   0  0  0  0  0  0  0  0  0  0  0  0
   -0.2920   -5.2630    1.6810 N   0  0  0  0  0  0  0  0  0  0  0  0
   -1.1490   -5.8560    1.6050 H   0  0  0  0  0  0  0  0  0  0  0  0
   -0.4790   -4.4880    2.3580 H   0  0  0  0  0  0  0  0  0  0  0  0
    2.5900    0.0340   -0.2400 C   0  0  0  0  0  3  0  0  0  0  0  0
    3.6930   -0.7250   -0.3940 O   0  0  0  0  0  0  0  0  0  0  0  0
    4.5350   -0.3200   -0.4670 H   0  0  0  0  0  0  0  0  0  0  0  0
    2.7470    1.3670   -0.1860 O   0  0  0  0  0  0  0  0  0  0  0  0
    1.9990    1.9220   -0.0800 H   0  0  0  0  0  0  0  0  0  0  0  0
   -0.1270    1.4860   -0.0430 N   0  0  0  0  0  0  0  0  0  0  0  0
    0.6690    2.1230   -0.0880 H   0  0  0  0  0  0  0  0  0  0  0  0
   -1.0610    1.9190    0.0060 H   0  0  0  0  0  0  0  0  0  0  0  0
  1  2  1  0  0  0  0
  2  3  2  0  0  0  0
  3  4  1  0  0  0  0
  5  3  1  0  0  0  0
  5  8  1  0  0  0  0
  6  5  2  0  0  0  0
  7  6  1  0  0  0  0
  7  1  2  0  0  0  0
  8 11  1  0  0  0  0
  9  8  2  0  0  0  0
 10  8  2  0  0  0  0
 11 13  1  0  0  0  0
 12 11  1  0  0  0  0
 14 17  1  0  0  0  0
 14  7  1  0  0  0  0
 15 14  1  0  0  0  0
 16 15  1  0  0  0  0
 17 18  1  0  0  0  0
 19  1  1  0  0  0  0
 19 21  1  0  0  0  0
 20 19  1  0  0  0  0
M  END
>  <REMARK>
  6 active torsions:
  status: ('A' for Active; 'I' for Inactive)
    1  A    between atoms: N_1  and  C_2 
    2  A    between atoms: C_6  and  S_7 
    3  A    between atoms: S_7  and  N_8 
    4  A    between atoms: C_12  and  C_13 
    5  A    between atoms: C_13  and  O_14 
    6  A    between atoms: C_13  and  O_15 

>  <TORSDO>
F 6

$$$$
C:\Users\siddh\.mgltools\PyRx\Ligands\ZINC000071246550_uff_E=198.34.pdbqt
 OpenBabel04182118313D

 22 23  0  0  1  0  0  0  0  0999 V2000
   -2.4910    1.0400    0.0810 C   0  0  2  0  0  3  0  0  0  0  0  0
   -2.5590    0.1290   -1.0990 N   0  0  0  0  0  0  0  0  0  0  0  0
   -3.8790   -0.5230   -1.1660 C   0  0  0  0  0  2  0  0  0  0  0  0
   -4.9630    0.5110   -1.4270 C   0  0  0  0  0  2  0  0  0  0  0  0
   -4.8980    1.5880   -0.4650 N   0  0  0  0  0  0  0  0  0  0  0  0
   -3.7930    1.8220    0.2920 C   0  0  0  0  0  0  0  0  0  0  0  0
   -3.8360    2.6870    1.1560 O   0  0  0  0  0  0  0  0  0  0  0  0
   -5.7260    2.1930   -0.3530 H   0  0  0  0  0  0  0  0  0  0  0  0
   -1.5070   -0.9160   -1.0820 C   0  0  0  0  0  2  0  0  0  0  0  0
   -1.3070   -1.4650   -2.4730 C   0  0  0  0  0  0  0  0  0  0  0  0
   -0.6400   -0.7050   -3.4450 C   0  0  0  0  0  3  0  0  0  0  0  0
   -0.4690   -1.2290   -4.7300 C   0  0  0  0  0  2  0  0  0  0  0  0
   -0.9660   -2.4570   -5.0390 N   0  0  0  0  0  0  0  0  0  0  0  0
   -1.6250   -3.2090   -4.1170 C   0  0  0  0  0  3  0  0  0  0  0  0
   -0.8420   -2.8210   -5.9830 H   0  0  0  0  0  0  0  0  0  0  0  0
   -1.7960   -2.7330   -2.8150 C   0  0  0  0  0  3  0  0  0  0  0  0
   -1.3160    2.0450   -0.0780 C   0  0  0  0  0  2  0  0  0  0  0  0
   -1.3820    2.9010   -1.3180 C   0  0  0  0  0  3  0  0  0  0  0  0
   -2.3810    2.7650   -2.2110 O   0  0  0  0  0  0  0  0  0  0  0  0
   -2.7910    3.5240   -2.5780 H   0  0  0  0  0  0  0  0  0  0  0  0
   -0.4180    3.8150   -1.5390 O   0  0  0  0  0  0  0  0  0  0  0  0
    0.2810    3.9180   -0.9230 H   0  0  0  0  0  0  0  0  0  0  0  0
  1 17  1  6  0  0  0
  1  6  1  0  0  0  0
  2  9  1  0  0  0  0
  2  1  1  0  0  0  0
  3  2  1  0  0  0  0
  4  3  1  0  0  0  0
  4  5  1  0  0  0  0
  5  8  1  0  0  0  0
  5  6  1  0  0  0  0
  6  7  2  0  0  0  0
 10  9  1  0  0  0  0
 11 10  2  0  0  0  0
 12 11  1  0  0  0  0
 13 12  1  0  0  0  0
 13 14  1  0  0  0  0
 14 16  2  0  0  0  0
 15 13  1  0  0  0  0
 16 10  1  0  0  0  0
 18 17  1  0  0  0  0
 19 18  1  0  0  0  0
 20 19  1  0  0  0  0
 21 18  1  0  0  0  0
 21 22  1  0  0  0  0
M  END
>  <REMARK>
  6 active torsions:
  status: ('A' for Active; 'I' for Inactive)
    1  A    between atoms: O_1  and  C_2 
    2  A    between atoms: C_2  and  O_3 
    3  A    between atoms: C_2  and  C_4 
    4  A    between atoms: C_4  and  C_5 
    5  A    between atoms: N_6  and  C_7 
    6  A    between atoms: C_7  and  C_8 

>  <TORSDO>
F 6

$$$$
C:\Users\siddh\.mgltools\PyRx\Ligands\ZINC000070453846_uff_E=475.08.pdbqt
 OpenBabel04182118313D

 18 18  0  0  1  0  0  0  0  0999 V2000
   -2.2420   -0.4730   -1.5030 C   0  0  1  0  0  3  0  0  0  0  0  0
   -3.1340    0.5990   -1.5980 C   0  0  0  0  0  3  0  0  0  0  0  0
   -3.7820    0.8470   -2.8080 C   0  0  0  0  0  3  0  0  0  0  0  0
   -3.5370    0.0230   -3.9160 C   0  0  0  0  0  0  0  0  0  0  0  0
   -2.6370   -1.0460   -3.7750 C   0  0  0  0  0  3  0  0  0  0  0  0
   -2.0160   -1.2660   -2.5830 N   0  0  0  0  0  0  0  0  0  0  0  0
   -1.3640   -2.0460   -2.5000 H   0  0  0  0  0  0  0  0  0  0  0  0
   -1.3840   -0.7960    0.0390 S   0  0  0  0  0  0  0  0  0  0  0  0
   -1.0900   -2.2920    0.2270 O   0  0  0  0  0  0  0  0  0  0  0  0
   -2.2440   -0.5000    1.2770 O   0  0  0  0  0  0  0  0  0  0  0  0
    0.1680    0.0110    0.3350 N   0  0  0  0  0  0  0  0  0  0  0  0
    0.0350    1.4430    0.0780 C   0  0  0  0  0  1  0  0  0  0  0  0
    0.8730   -0.3930   -0.3220 H   0  0  0  0  0  0  0  0  0  0  0  0
   -4.2120    0.2790   -5.2110 C   0  0  0  0  0  3  0  0  0  0  0  0
   -5.0680    1.3110   -5.3410 O   0  0  0  0  0  0  0  0  0  0  0  0
   -5.4920    1.4680   -6.1620 H   0  0  0  0  0  0  0  0  0  0  0  0
   -3.9700   -0.5130   -6.2740 O   0  0  0  0  0  0  0  0  0  0  0  0
   -3.3760   -1.2340   -6.1960 H   0  0  0  0  0  0  0  0  0  0  0  0
  1  8  1  6  0  0  0
  2  1  1  0  0  0  0
  3  2  2  0  0  0  0
  4  5  2  0  0  0  0
  4  3  1  0  0  0  0
  5  6  1  0  0  0  0
  6  7  1  0  0  0  0
  6  1  1  0  0  0  0
  8  9  2  0  0  0  0
  8 11  1  0  0  0  0
  8 10  2  0  0  0  0
 12 11  1  0  0  0  0
 13 11  1  0  0  0  0
 14  4  1  0  0  0  0
 15 14  1  0  0  0  0
 16 15  1  0  0  0  0
 17 18  1  0  0  0  0
 17 14  1  0  0  0  0
M  END
>  <REMARK>
  5 active torsions:
  status: ('A' for Active; 'I' for Inactive)
    1  A    between atoms: N_2  and  S_3 
    2  A    between atoms: S_3  and  C_6 
    3  A    between atoms: C_9  and  C_10 
    4  A    between atoms: C_10  and  O_11 
    5  A    between atoms: C_10  and  O_12 

>  <TORSDO>
F 5

$$$$
C:\Users\siddh\.mgltools\PyRx\Ligands\ZINC000070453844_uff_E=476.40.pdbqt
 OpenBabel04182118313D

 18 18  0  0  1  0  0  0  0  0999 V2000
    1.7180   -0.5100   -0.0060 C   0  0  1  0  0  3  0  0  0  0  0  0
    2.3750   -0.7060   -1.2250 C   0  0  0  0  0  3  0  0  0  0  0  0
    3.7110   -1.1130   -1.2230 C   0  0  0  0  0  3  0  0  0  0  0  0
    4.3790   -1.3210   -0.0060 C   0  0  0  0  0  0  0  0  0  0  0  0
    3.6740   -1.1220    1.1920 C   0  0  0  0  0  3  0  0  0  0  0  0
    2.3750   -0.7230    1.1620 N   0  0  0  0  0  0  0  0  0  0  0  0
    1.8810   -0.5790    2.0430 H   0  0  0  0  0  0  0  0  0  0  0  0
    0.0330    0.0830    0.0420 S   0  0  0  0  0  0  0  0  0  0  0  0
   -0.7650   -0.5490    1.1920 O   0  0  0  0  0  0  0  0  0  0  0  0
   -0.8090   -0.2810   -1.1920 O   0  0  0  0  0  0  0  0  0  0  0  0
   -0.1480    1.8260    0.2820 N   0  0  0  0  0  0  0  0  0  0  0  0
    0.6720    2.3020   -0.1580 H   0  0  0  0  0  0  0  0  0  0  0  0
   -1.0220    2.1570   -0.1830 H   0  0  0  0  0  0  0  0  0  0  0  0
    5.8020   -1.7320    0.0200 C   0  0  0  0  0  3  0  0  0  0  0  0
    6.4800   -1.9110   -1.1300 O   0  0  0  0  0  0  0  0  0  0  0  0
    7.3800   -2.1710   -1.1070 H   0  0  0  0  0  0  0  0  0  0  0  0
    6.4360   -1.9170    1.1940 O   0  0  0  0  0  0  0  0  0  0  0  0
    5.9740   -1.7950    2.0010 H   0  0  0  0  0  0  0  0  0  0  0  0
  1  8  1  1  0  0  0
  1  6  1  0  0  0  0
  2  3  2  0  0  0  0
  2  1  1  0  0  0  0
  3  4  1  0  0  0  0
  4 14  1  0  0  0  0
  4  5  2  0  0  0  0
  6  5  1  0  0  0  0
  6  7  1  0  0  0  0
  8 11  1  0  0  0  0
  8  9  2  0  0  0  0
 10  8  2  0  0  0  0
 12 11  1  0  0  0  0
 13 11  1  0  0  0  0
 14 17  1  0  0  0  0
 15 16  1  0  0  0  0
 15 14  1  0  0  0  0
 17 18  1  0  0  0  0
M  END
>  <REMARK>
  5 active torsions:
  status: ('A' for Active; 'I' for Inactive)
    1  A    between atoms: N_1  and  S_2 
    2  A    between atoms: S_2  and  C_5 
    3  A    between atoms: C_8  and  C_9 
    4  A    between atoms: C_9  and  O_10 
    5  A    between atoms: C_9  and  O_11 

>  <TORSDO>
F 5

$$$$
C:\Users\siddh\.mgltools\PyRx\Ligands\ZINC000070274092_uff_E=375.88.pdbqt
 OpenBabel04182118313D

 20 21  0  0  1  0  0  0  0  0999 V2000
    0.0740   -3.3160   -1.5210 C   0  0  2  0  0  3  0  0  0  0  0  0
   -1.3500   -3.9210   -1.6540 C   0  0  2  0  0  3  0  0  0  0  0  0
   -1.2620   -5.1570   -2.3170 O   0  0  0  0  0  0  0  0  0  0  0  0
   -0.6490   -6.1140   -1.4760 C   0  0  0  0  0  2  0  0  0  0  0  0
    0.6540   -5.6240   -0.8830 C   0  0  0  0  0  0  0  0  0  0  0  0
    1.3900   -6.4380   -0.3430 O   0  0  0  0  0  0  0  0  0  0  0  0
    1.0150   -4.3020   -0.9740 N   0  0  0  0  0  0  0  0  0  0  0  0
    2.3470   -3.8660   -0.5590 C   0  0  0  0  0  1  0  0  0  0  0  0
   -0.0010   -2.0850   -0.6470 C   0  0  0  0  0  0  0  0  0  0  0  0
    0.1710   -0.7770   -1.0460 C   0  0  0  0  0  2  0  0  0  0  0  0
   -0.0250    0.0130    0.0250 N   0  0  0  0  0  0  0  0  0  0  0  0
    0.0150    1.4680    0.0330 C   0  0  0  0  0  1  0  0  0  0  0  0
   -0.2940   -0.7310    1.0890 N   0  0  0  0  0  0  0  0  0  0  0  0
   -0.2860   -2.0230    0.7050 C   0  0  0  0  0  3  0  0  0  0  0  0
   -0.4750   -0.3860    2.0310 H   0  0  0  0  0  0  0  0  0  0  0  0
   -2.2780   -3.0140   -2.4300 C   0  0  0  0  0  3  0  0  0  0  0  0
   -2.8250   -3.4310   -3.5890 O   0  0  0  0  0  0  0  0  0  0  0  0
   -3.4000   -2.8660   -4.0660 H   0  0  0  0  0  0  0  0  0  0  0  0
   -2.5830   -1.7880   -1.9620 O   0  0  0  0  0  0  0  0  0  0  0  0
   -2.2090   -1.4870   -1.1580 H   0  0  0  0  0  0  0  0  0  0  0  0
  1  7  1  0  0  0  0
  1  9  1  1  0  0  0
  2 16  1  6  0  0  0
  2  1  1  0  0  0  0
  3  2  1  0  0  0  0
  3  4  1  0  0  0  0
  4  5  1  0  0  0  0
  5  6  2  0  0  0  0
  7  5  1  0  0  0  0
  7  8  1  0  0  0  0
  9 14  2  0  0  0  0
 10  9  1  0  0  0  0
 10 11  1  0  0  0  0
 11 12  1  0  0  0  0
 11 13  1  0  0  0  0
 13 15  1  0  0  0  0
 14 13  1  0  0  0  0
 16 19  1  0  0  0  0
 17 16  1  0  0  0  0
 18 17  1  0  0  0  0
 19 20  1  0  0  0  0
M  END
>  <REMARK>
  4 active torsions:
  status: ('A' for Active; 'I' for Inactive)
    1  A    between atoms: C_4  and  C_5 
    2  A    between atoms: C_6  and  C_7 
    3  A    between atoms: C_7  and  O_8 
    4  A    between atoms: C_7  and  O_9 

>  <TORSDO>
F 4

$$$$
C:\Users\siddh\.mgltools\PyRx\Ligands\ZINC000069716908_uff_E=698.43.pdbqt
 OpenBabel04182118313D

 16 16  0  0  1  0  0  0  0  0999 V2000
    1.0050   -1.9110   -1.7240 C   0  0  1  0  0  3  0  0  0  0  0  0
    0.0900   -2.6550   -2.3770 N   0  0  0  0  0  0  0  0  0  0  0  0
   -0.7680   -2.3400   -2.8310 H   0  0  0  0  0  0  0  0  0  0  0  0
    0.5690   -3.9090   -2.2900 C   0  0  0  0  0  0  0  0  0  0  0  0
    1.7620   -3.8850   -1.6030 C   0  0  0  0  0  3  0  0  0  0  0  0
    2.0050   -2.6390   -1.2790 O   0  0  0  0  0  0  0  0  0  0  0  0
    0.9600   -0.4250   -1.6520 C   0  0  0  0  0  2  0  0  0  0  0  0
    0.1040    0.1540   -0.1650 S   0  0  0  0  0  0  0  0  0  0  0  0
   -0.0780    1.9310    0.1120 C   0  0  0  0  0  1  0  0  0  0  0  0
    0.7610   -0.4730    1.0750 O   0  0  0  0  0  0  0  0  0  0  0  0
   -1.2860   -0.4990   -0.0940 O   0  0  0  0  0  0  0  0  0  0  0  0
   -0.0920   -5.0840   -2.8680 C   0  0  0  0  0  3  0  0  0  0  0  0
   -1.2600   -4.9470   -3.5230 O   0  0  0  0  0  0  0  0  0  0  0  0
   -1.6820   -5.6980   -3.8920 H   0  0  0  0  0  0  0  0  0  0  0  0
    0.4690   -6.3030   -2.7510 O   0  0  0  0  0  0  0  0  0  0  0  0
    1.2820   -6.4040   -2.2960 H   0  0  0  0  0  0  0  0  0  0  0  0
  1  7  1  6  0  0  0
  1  6  1  0  0  0  0
  2  4  1  0  0  0  0
  2  1  1  0  0  0  0
  3  2  1  0  0  0  0
  4  5  2  0  0  0  0
  5  6  1  0  0  0  0
  7  8  1  0  0  0  0
  8 11  2  0  0  0  0
  8  9  1  0  0  0  0
  8 10  2  0  0  0  0
 12 15  1  0  0  0  0
 12  4  1  0  0  0  0
 13 12  1  0  0  0  0
 14 13  1  0  0  0  0
 15 16  1  0  0  0  0
M  END
>  <REMARK>
  5 active torsions:
  status: ('A' for Active; 'I' for Inactive)
    1  A    between atoms: S_2  and  C_5 
    2  A    between atoms: C_5  and  C_6 
    3  A    between atoms: C_9  and  C_10 
    4  A    between atoms: C_10  and  O_11 
    5  A    between atoms: C_10  and  O_12 

>  <TORSDO>
F 5

$$$$
C:\Users\siddh\.mgltools\PyRx\Ligands\ZINC000069716743_uff_E=691.74.pdbqt
 OpenBabel04182118313D

 17 17  0  0  1  0  0  0  0  0999 V2000
    0.9900   -1.8970   -1.7820 C   0  0  2  0  0  3  0  0  0  0  0  0
    0.2460   -2.6830   -2.5820 N   0  0  0  0  0  0  0  0  0  0  0  0
   -0.4510   -2.4100   -3.2750 H   0  0  0  0  0  0  0  0  0  0  0  0
    0.6530   -3.9200   -2.2410 C   0  0  0  0  0  0  0  0  0  0  0  0
    1.6030   -3.8790   -1.2860 N   0  0  0  0  0  0  0  0  0  0  0  0
    2.0820   -4.6720   -0.8580 H   0  0  0  0  0  0  0  0  0  0  0  0
    1.7810   -2.6190   -1.0250 O   0  0  0  0  0  0  0  0  0  0  0  0
    0.9120   -0.4060   -1.7680 C   0  0  0  0  0  2  0  0  0  0  0  0
    0.2080    0.1950   -0.2020 S   0  0  0  0  0  0  0  0  0  0  0  0
   -0.0590    1.9470    0.1830 C   0  0  0  0  0  1  0  0  0  0  0  0
    0.9400   -0.4620    0.9790 O   0  0  0  0  0  0  0  0  0  0  0  0
   -1.1590   -0.4880   -0.0460 O   0  0  0  0  0  0  0  0  0  0  0  0
    0.1080   -5.1530   -2.8190 C   0  0  0  0  0  0  0  0  0  0  0  0
   -0.9010   -5.0910   -3.7080 O   0  0  0  0  0  0  0  0  0  0  0  0
   -1.2490   -5.8790   -4.0780 H   0  0  0  0  0  0  0  0  0  0  0  0
    0.6030   -6.3500   -2.4510 O   0  0  0  0  0  0  0  0  0  0  0  0
    1.3050   -6.3970   -1.8330 H   0  0  0  0  0  0  0  0  0  0  0  0
  1  8  1  1  0  0  0
  1  7  1  0  0  0  0
  2  4  1  0  0  0  0
  2  1  1  0  0  0  0
  3  2  1  0  0  0  0
  4  5  1  0  0  0  0
  5  7  1  0  0  0  0
  5  6  1  0  0  0  0
  8  9  1  0  0  0  0
  9 12  2  0  0  0  0
  9 10  1  0  0  0  0
  9 11  2  0  0  0  0
 13 16  1  0  0  0  0
 13  4  2  0  0  0  0
 14 13  1  0  0  0  0
 15 14  1  0  0  0  0
 16 17  1  0  0  0  0
M  END
>  <REMARK>
  5 active torsions:
  status: ('A' for Active; 'I' for Inactive)
    1  A    between atoms: S_2  and  C_5 
    2  A    between atoms: C_5  and  C_6 
    3  A    between atoms: C_9  and  C_10 
    4  A    between atoms: C_10  and  O_11 
    5  A    between atoms: C_10  and  O_12 

>  <TORSDO>
F 5

$$$$
C:\Users\siddh\.mgltools\PyRx\Ligands\ZINC000067842984_uff_E=394.10.pdbqt
 OpenBabel04182118313D

 25 26  0  0  1  0  0  0  0  0999 V2000
   -1.3550   -0.4750   -0.0200 N   0  0  0  0  0  0  0  0  0  0  0  0
   -2.0310   -0.5890   -1.1960 C   0  0  0  0  0  0  0  0  0  0  0  0
   -1.4870   -0.2620   -2.2430 O   0  0  0  0  0  0  0  0  0  0  0  0
   -3.3030   -1.0800   -1.2050 N   0  0  0  0  0  0  0  0  0  0  0  0
   -4.0550   -1.2430   -2.4020 C   0  0  1  0  0  3  0  0  0  0  0  0
   -3.6160   -0.9580   -3.6410 N   0  0  0  0  0  0  0  0  0  0  0  0
   -2.7020   -0.5890   -3.9040 H   0  0  0  0  0  0  0  0  0  0  0  0
   -4.6220   -1.2560   -4.4450 N   0  0  0  0  0  0  0  0  0  0  0  0
   -5.6410   -1.7090   -3.7270 N   0  0  0  0  0  2  0  0  0  0  0  0
   -5.3110   -1.7110   -2.4450 N   0  0  0  0  0  0  0  0  0  0  0  0
   -5.8890   -2.0060   -1.6580 H   0  0  0  0  0  0  0  0  0  0  0  0
   -1.8150   -0.7780    0.8540 H   0  0  0  0  0  0  0  0  0  0  0  0
   -3.7470   -1.3490   -0.3120 H   0  0  0  0  0  0  0  0  0  0  0  0
   -4.6150   -1.1580   -5.4240 H   0  0  0  0  0  0  0  0  0  0  0  0
    0.0130    0.0260    0.0330 C   0  0  1  0  0  3  0  0  0  0  0  0
   -0.0100    1.5560    0.0150 C   0  0  0  0  0  1  0  0  0  0  0  0
    0.7390   -0.5040    1.2850 C   0  0  0  0  0  2  0  0  0  0  0  0
    0.8920   -2.0050    1.2190 C   0  0  0  0  0  0  0  0  0  0  0  0
   -0.2080   -2.7970    1.0870 N   0  0  0  0  0  0  0  0  0  0  0  0
   -0.1010   -4.1460    0.9950 C   0  0  0  0  0  3  0  0  0  0  0  0
   -1.1320   -2.3660    1.0560 H   0  0  0  0  0  0  0  0  0  0  0  0
    1.1590   -4.7400    1.0520 C   0  0  0  0  0  3  0  0  0  0  0  0
    2.2620   -3.9590    1.1940 N   0  0  0  0  0  0  0  0  0  0  0  0
    2.1580   -2.6060    1.2750 C   0  0  0  0  0  3  0  0  0  0  0  0
    3.1830   -4.3950    1.2410 H   0  0  0  0  0  0  0  0  0  0  0  0
  1 15  1  0  0  0  0
  1 12  1  0  0  0  0
  2  1  1  0  0  0  0
  3  2  2  0  0  0  0
  4  2  1  0  0  0  0
  4 13  1  0  0  0  0
  5  4  1  6  0  0  0
  6  5  1  0  0  0  0
  7  6  1  0  0  0  0
  8  9  1  0  0  0  0
  8  6  1  0  0  0  0
  9 10  1  0  0  0  0
 10  5  1  0  0  0  0
 10 11  1  0  0  0  0
 14  8  1  0  0  0  0
 15 16  1  1  0  0  0
 15 17  1  0  0  0  0
 18 24  2  0  0  0  0
 18 17  1  0  0  0  0
 19 18  1  0  0  0  0
 20 22  2  0  0  0  0
 20 19  1  0  0  0  0
 21 19  1  0  0  0  0
 22 23  1  0  0  0  0
 23 25  1  0  0  0  0
 23 24  1  0  0  0  0
M  END
>  <REMARK>
  3 active torsions:
  status: ('A' for Active; 'I' for Inactive)
    1  A    between atoms: C_2  and  C_3 
    2  A    between atoms: C_2  and  N_12 
    3  A    between atoms: C_3  and  C_4 
       I    between atoms: N_12  and  C_13 
       I    between atoms: C_13  and  N_15 
       I    between atoms: N_15  and  C_16 

>  <TORSDO>
F 3

$$$$
C:\Users\siddh\.mgltools\PyRx\Ligands\ZINC000066324463_uff_E=367.37.pdbqt
 OpenBabel04182118313D

 19 21  0  0  1  0  0  0  0  0999 V2000
   -0.0360    0.0160    0.0040 O   0  0  0  0  0  0  0  0  0  0  0  0
   -0.0460    1.2370    0.0100 C   0  0  0  0  0  0  0  0  0  0  0  0
   -1.2660    1.9410    0.0310 C   0  0  0  0  0  0  0  0  0  0  0  0
   -1.2480    3.3550    0.0380 C   0  0  0  0  0  0  0  0  0  0  0  0
   -0.0230    4.0300    0.0240 C   0  0  0  0  0  3  0  0  0  0  0  0
    1.1670    3.2940    0.0040 C   0  0  0  0  0  2  0  0  0  0  0  0
    1.1450    1.9300   -0.0020 N   0  0  0  0  0  0  0  0  0  0  0  0
   -2.4440    4.0060    0.0590 N   0  0  0  0  0  0  0  0  0  0  0  0
   -2.6950    5.3050    0.0690 N   0  0  0  0  0  0  0  0  0  0  0  0
   -2.0120    6.0630    0.0640 H   0  0  0  0  0  0  0  0  0  0  0  0
   -4.0490    5.4200    0.0890 C   0  0  0  0  0  2  0  0  0  0  0  0
   -4.6520    4.2040    0.0910 N   0  0  0  0  0  0  0  0  0  0  0  0
   -5.6490    3.9860    0.1040 H   0  0  0  0  0  0  0  0  0  0  0  0
   -3.6090    3.3590    0.0710 C   0  0  2  0  0  3  0  0  0  0  0  0
   -3.6810    2.0070    0.0650 N   0  0  0  0  0  0  0  0  0  0  0  0
   -4.5850    1.5360    0.0750 H   0  0  0  0  0  0  0  0  0  0  0  0
   -2.5230    1.2830    0.0450 C   0  0  0  0  0  3  0  0  0  0  0  0
    2.3180    1.2510   -0.0210 O   0  0  0  0  0  0  0  0  0  0  0  0
    2.3170    0.3140   -0.0260 H   0  0  0  0  0  0  0  0  0  0  0  0
  1  2  2  0  0  0  0
  2  3  1  0  0  0  0
  3  4  1  0  0  0  0
  3 17  2  0  0  0  0
  4  8  1  0  0  0  0
  5  4  2  0  0  0  0
  6  5  1  0  0  0  0
  7  6  1  0  0  0  0
  7  2  1  0  0  0  0
  8  9  1  0  0  0  0
  9 11  1  0  0  0  0
 10  9  1  0  0  0  0
 11 12  1  0  0  0  0
 12 13  1  0  0  0  0
 14  8  1  1  0  0  0
 14 12  1  0  0  0  0
 15 14  1  0  0  0  0
 15 16  1  0  0  0  0
 17 15  1  0  0  0  0
 18  7  1  0  0  0  0
 19 18  1  0  0  0  0
M  END
>  <REMARK>
  1 active torsions:
  status: ('A' for Active; 'I' for Inactive)
    1  A    between atoms: N_7  and  O_8 

>  <TORSDO>
F 1

$$$$
C:\Users\siddh\.mgltools\PyRx\Ligands\ZINC000066323259_uff_E=133.35.pdbqt
 OpenBabel04182118313D

 17 18  0  0  1  0  0  0  0  0999 V2000
   -1.6950   -0.3540    0.0170 C   0  0  2  0  0  3  0  0  0  0  0  0
   -2.5910    0.6670    0.1130 N   0  0  0  0  0  0  0  0  0  0  0  0
   -2.2520    1.6270    0.1870 H   0  0  0  0  0  0  0  0  0  0  0  0
   -3.9240    0.4290    0.1110 C   0  0  2  0  0  3  0  0  0  0  0  0
   -4.8010    1.4560    0.2190 N   0  0  0  0  0  0  0  0  0  0  0  0
   -4.4570    2.4130    0.2980 H   0  0  0  0  0  0  0  0  0  0  0  0
   -6.1490    1.2110    0.2220 C   0  0  0  0  0  0  0  0  0  0  0  0
   -6.9310    2.1360    0.3380 O   0  0  0  0  0  0  0  0  0  0  0  0
   -6.6070   -0.0330    0.1030 O   0  0  0  0  0  0  0  0  0  0  0  0
   -5.7900   -1.0780   -0.0070 C   0  0  0  0  0  0  0  0  0  0  0  0
   -6.2590   -2.1980   -0.1160 O   0  0  0  0  0  0  0  0  0  0  0  0
   -4.4010   -0.8810    0.0050 C   0  0  0  0  0  0  0  0  0  0  0  0
   -3.4680   -1.9240   -0.0800 C   0  0  0  0  0  3  0  0  0  0  0  0
   -2.1390   -1.6380   -0.0720 N   0  0  0  0  0  0  0  0  0  0  0  0
   -1.4850   -2.3720   -0.1310 H   0  0  0  0  0  0  0  0  0  0  0  0
    0.0770   -0.0290    0.0130 S   0  0  0  0  0  0  0  0  0  0  0  0
   -0.0150    1.7930    0.0120 C   0  0  0  0  0  1  0  0  0  0  0  0
  1 16  1  1  0  0  0
  1  2  1  0  0  0  0
  2  3  1  0  0  0  0
  4 12  1  1  0  0  0
  4  2  1  0  0  0  0
  4  5  1  0  0  0  0
  5  7  1  0  0  0  0
  5  6  1  0  0  0  0
  7  8  2  0  0  0  0
  9  7  1  0  0  0  0
 10 12  1  0  0  0  0
 10  9  1  0  0  0  0
 11 10  2  0  0  0  0
 13 14  1  0  0  0  0
 13 12  2  0  0  0  0
 14  1  1  0  0  0  0
 15 14  1  0  0  0  0
 17 16  1  0  0  0  0
M  END
>  <REMARK>
  1 active torsions:
  status: ('A' for Active; 'I' for Inactive)
    1  A    between atoms: S_2  and  C_3 

>  <TORSDO>
F 1

$$$$
C:\Users\siddh\.mgltools\PyRx\Ligands\ZINC000065614335_uff_E=326.84.pdbqt
 OpenBabel04182118313D

 20 21  0  0  1  0  0  0  0  0999 V2000
   -0.1580    0.0090    0.0200 O   0  0  0  0  0  0  0  0  0  0  0  0
   -0.1010    1.2310    0.0050 C   0  0  0  0  0  0  0  0  0  0  0  0
    1.1010    1.8800    0.0190 N   0  0  0  0  0  0  0  0  0  0  0  0
    1.1090    2.9120    0.0080 H   0  0  0  0  0  0  0  0  0  0  0  0
   -1.3570    1.9920   -0.0010 C   0  0  1  0  0  3  0  0  0  0  0  0
   -2.5810    1.4190    0.0150 N   0  0  0  0  0  0  0  0  0  0  0  0
   -3.4610    2.4030    0.0320 N   0  0  0  0  0  0  0  0  0  0  0  0
   -2.7770    0.4550    0.0150 H   0  0  0  0  0  0  0  0  0  0  0  0
   -2.7660    3.5610    0.0270 C   0  0  0  0  0  0  0  0  0  0  0  0
   -4.4970    2.2770    0.0490 H   0  0  0  0  0  0  0  0  0  0  0  0
   -1.4310    3.3430    0.0070 N   0  0  0  0  0  0  0  0  0  0  0  0
   -3.2770    4.6660    0.0430 O   0  0  0  0  0  0  0  0  0  0  0  0
   -0.6720    4.0240   -0.0000 H   0  0  0  0  0  0  0  0  0  0  0  0
    2.3550    1.2000    0.0840 C   0  0  2  0  0  3  0  0  0  0  0  0
    2.4080   -0.1620    0.0840 N   0  0  0  0  0  0  0  0  0  0  0  0
    3.5790   -0.8400    0.1690 C   0  0  0  0  0  3  0  0  0  0  0  0
    1.5370   -0.6890    0.0170 H   0  0  0  0  0  0  0  0  0  0  0  0
    4.7820   -0.1430    0.2650 C   0  0  0  0  0  3  0  0  0  0  0  0
    4.7660    1.2530    0.2670 C   0  0  0  0  0  3  0  0  0  0  0  0
    3.5490    1.9340    0.1740 C   0  0  0  0  0  3  0  0  0  0  0  0
  2  3  1  0  0  0  0
  2  1  2  0  0  0  0
  4  3  1  0  0  0  0
  5  2  1  1  0  0  0
  5 11  1  0  0  0  0
  5  6  1  0  0  0  0
  6  8  1  0  0  0  0
  6  7  1  0  0  0  0
  7 10  1  0  0  0  0
  9  7  1  0  0  0  0
  9 12  2  0  0  0  0
 11  9  1  0  0  0  0
 13 11  1  0  0  0  0
 14  3  1  1  0  0  0
 14 15  1  0  0  0  0
 14 20  1  0  0  0  0
 15 16  1  0  0  0  0
 16 18  2  0  0  0  0
 17 15  1  0  0  0  0
 18 19  1  0  0  0  0
 20 19  2  0  0  0  0
M  END
>  <REMARK>
  2 active torsions:
  status: ('A' for Active; 'I' for Inactive)
       I    between atoms: C_2  and  N_3 
    1  A    between atoms: C_2  and  C_11 
    2  A    between atoms: N_3  and  C_4 

>  <TORSDO>
F 2

$$$$
C:\Users\siddh\.mgltools\PyRx\Ligands\ZINC000065525969_uff_E=570.88.pdbqt
 OpenBabel04182118313D

 22 23  0  0  0  0  0  0  0  0999 V2000
    0.0560   -3.2700    1.5970 C   0  0  0  0  0  0  0  0  0  0  0  0
    0.0780   -4.5520    1.1570 N   0  0  0  0  0  0  0  0  0  0  0  0
    0.0870   -4.8570    0.1840 H   0  0  0  0  0  0  0  0  0  0  0  0
    0.0860   -5.3350    2.2280 N   0  0  0  0  0  0  0  0  0  0  0  0
    0.0670   -4.5340    3.3150 C   0  0  0  0  0  0  0  0  0  0  0  0
    0.0760   -4.9360    4.4660 O   0  0  0  0  0  0  0  0  0  0  0  0
    0.0460   -3.2300    2.9540 N   0  0  0  0  0  0  0  0  0  0  0  0
    0.1060   -6.3790    2.2120 H   0  0  0  0  0  0  0  0  0  0  0  0
    0.0410   -2.0960    0.6910 C   0  0  0  0  0  0  0  0  0  0  0  0
    0.0330   -2.1410   -0.6930 C   0  0  0  0  0  3  0  0  0  0  0  0
    0.0130   -0.8210   -1.0930 C   0  0  0  0  0  3  0  0  0  0  0  0
    0.0090   -0.0450    0.0060 N   0  0  0  0  0  0  0  0  0  0  0  0
   -0.0130    1.4140    0.0270 C   0  0  0  0  0  1  0  0  0  0  0  0
    0.0280   -0.8060    1.0890 N   0  0  0  0  0  0  0  0  0  0  0  0
    0.0330   -0.4760    2.0540 H   0  0  0  0  0  0  0  0  0  0  0  0
    0.0290   -2.0770    3.8490 C   0  0  0  0  0  2  0  0  0  0  0  0
    1.4590   -1.6260    4.1460 C   0  0  0  0  0  2  0  0  0  0  0  0
    1.4880   -0.4140    5.0320 C   0  0  0  0  0  3  0  0  0  0  0  0
    0.3440    0.1600    5.4590 O   0  0  0  0  0  0  0  0  0  0  0  0
    0.3770    0.9160    6.0110 H   0  0  0  0  0  0  0  0  0  0  0  0
    2.6700    0.1120    5.3990 O   0  0  0  0  0  0  0  0  0  0  0  0
    3.4690   -0.2800    5.1070 H   0  0  0  0  0  0  0  0  0  0  0  0
  1  7  1  0  0  0  0
  2  1  1  0  0  0  0
  2  4  1  0  0  0  0
  3  2  1  0  0  0  0
  4  5  1  0  0  0  0
  5  6  2  0  0  0  0
  7  5  1  0  0  0  0
  7 16  1  0  0  0  0
  8  4  1  0  0  0  0
  9 14  1  0  0  0  0
  9  1  2  0  0  0  0
 10  9  1  0  0  0  0
 11 10  2  0  0  0  0
 11 12  1  0  0  0  0
 12 13  1  0  0  0  0
 12 14  1  0  0  0  0
 14 15  1  0  0  0  0
 16 17  1  0  0  0  0
 17 18  1  0  0  0  0
 18 21  1  0  0  0  0
 18 19  1  0  0  0  0
 19 20  1  0  0  0  0
 22 21  1  0  0  0  0
M  END
>  <REMARK>
  6 active torsions:
  status: ('A' for Active; 'I' for Inactive)
    1  A    between atoms: C_5  and  C_6 
    2  A    between atoms: N_12  and  C_13 
    3  A    between atoms: C_13  and  C_14 
    4  A    between atoms: C_14  and  C_15 
    5  A    between atoms: C_15  and  O_16 
    6  A    between atoms: C_15  and  O_17 

>  <TORSDO>
F 6

$$$$
C:\Users\siddh\.mgltools\PyRx\Ligands\ZINC000065434528_uff_E=1775.58.pdbqt
 OpenBabel04182118313D

 21 23  0  0  1  0  0  0  0  0999 V2000
   -0.7810    5.7720   -0.0010 C   0  0  1  0  0  3  0  0  0  0  0  0
   -0.3090    6.4290    1.0760 N   0  0  0  0  0  0  0  0  0  0  0  0
   -0.4530    6.1810    2.0550 H   0  0  0  0  0  0  0  0  0  0  0  0
    0.3790    7.4590    0.6150 N   0  0  0  0  0  0  0  0  0  0  0  0
    0.3260    7.4170   -0.7340 C   0  0  1  0  0  3  0  0  0  0  0  0
   -0.4020    6.3650   -1.1510 N   0  0  0  0  0  0  0  0  0  0  0  0
   -0.6170    6.0840   -2.1080 H   0  0  0  0  0  0  0  0  0  0  0  0
    0.8520    8.1600    1.2250 H   0  0  0  0  0  0  0  0  0  0  0  0
   -1.5790    4.5080    0.0580 C   0  0  0  0  0  2  0  0  0  0  0  0
   -0.7010    3.2910    0.0390 C   0  0  1  0  0  3  0  0  0  0  0  0
   -1.1810    2.0260    0.0450 N   0  0  0  0  0  0  0  0  0  0  0  0
   -0.0500    1.2810    0.0170 C   0  0  0  0  0  0  0  0  0  0  0  0
   -2.1170    1.7220    0.0640 H   0  0  0  0  0  0  0  0  0  0  0  0
   -0.0330    0.0630    0.0090 O   0  0  0  0  0  0  0  0  0  0  0  0
    1.0560    2.0560   -0.0020 N   0  0  0  0  0  0  0  0  0  0  0  0
    0.6520    3.3140    0.0100 N   0  0  0  0  0  0  0  0  0  0  0  0
    2.0530    1.7470   -0.0230 H   0  0  0  0  0  0  0  0  0  0  0  0
    1.2460    4.1430   -0.0000 H   0  0  0  0  0  0  0  0  0  0  0  0
    0.9650    8.3870   -1.7000 C   0  0  0  0  0  3  0  0  0  0  0  0
    2.4700    8.3360   -1.8970 C   0  0  0  0  0  2  0  0  0  0  0  0
    1.8600    9.4080   -1.0050 C   0  0  0  0  0  2  0  0  0  0  0  0
  1  9  1  6  0  0  0
  1  2  1  0  0  0  0
  2  3  1  0  0  0  0
  4  2  1  0  0  0  0
  4  8  1  0  0  0  0
  5 19  1  1  0  0  0
  5  4  1  0  0  0  0
  6  5  1  0  0  0  0
  6  1  1  0  0  0  0
  7  6  1  0  0  0  0
 10 11  1  0  0  0  0
 10  9  1  6  0  0  0
 11 13  1  0  0  0  0
 12 11  1  0  0  0  0
 14 12  2  0  0  0  0
 15 16  1  0  0  0  0
 15 12  1  0  0  0  0
 16 10  1  0  0  0  0
 17 15  1  0  0  0  0
 18 16  1  0  0  0  0
 19 21  1  0  0  0  0
 20 19  1  0  0  0  0
 20 21  1  0  0  0  0
M  END
>  <REMARK>
  3 active torsions:
  status: ('A' for Active; 'I' for Inactive)
    1  A    between atoms: C_4  and  C_5 
    2  A    between atoms: C_5  and  C_6 
    3  A    between atoms: C_10  and  C_11 

>  <TORSDO>
F 3

$$$$
C:\Users\siddh\.mgltools\PyRx\Ligands\ZINC000065422631_uff_E=355.46.pdbqt
 OpenBabel04182118313D

 22 23  0  0  1  0  0  0  0  0999 V2000
    2.2240   -0.0410   -1.2430 C   0  0  2  0  0  3  0  0  0  0  0  0
    2.6600    1.2320   -1.3180 N   0  0  0  0  0  0  0  0  0  0  0  0
    2.0790    2.0700   -1.3480 H   0  0  0  0  0  0  0  0  0  0  0  0
    3.9840    1.1920   -1.3440 N   0  0  0  0  0  0  0  0  0  0  0  0
    4.6150    1.9920   -1.4000 H   0  0  0  0  0  0  0  0  0  0  0  0
    4.3400   -0.1050   -1.2810 C   0  0  1  0  0  3  0  0  0  0  0  0
    3.2570   -0.9000   -1.2190 N   0  0  0  0  0  0  0  0  0  0  0  0
    3.2280   -1.9430   -1.1890 H   0  0  0  0  0  0  0  0  0  0  0  0
    5.7490   -0.6040   -1.3280 C   0  0  0  0  0  2  0  0  0  0  0  0
    6.2910   -0.3960   -2.6710 N   0  0  0  0  0  0  0  0  0  0  0  0
    6.8500    0.8080   -3.0580 C   0  0  0  0  0  0  0  0  0  0  0  0
    7.3230    0.9630   -4.3630 C   0  0  0  0  0  3  0  0  0  0  0  0
    6.9400    1.7350   -2.2680 O   0  0  0  0  0  0  0  0  0  0  0  0
    7.2100   -0.0950   -5.2620 C   0  0  0  0  0  3  0  0  0  0  0  0
    6.6350   -1.2870   -4.8360 C   0  0  0  0  0  0  0  0  0  0  0  0
    6.1960   -1.4050   -3.5470 N   0  0  0  0  0  0  0  0  0  0  0  0
    6.5170   -2.2240   -5.6050 O   0  0  0  0  0  0  0  0  0  0  0  0
    5.7990   -2.2560   -3.2530 H   0  0  0  0  0  0  0  0  0  0  0  0
    0.7770   -0.4550   -1.2370 C   0  0  0  0  0  2  0  0  0  0  0  0
   -0.0030    0.0310    0.0070 C   0  0  0  0  0  3  0  0  0  0  0  0
   -0.0980    1.5630    0.0850 C   0  0  0  0  0  1  0  0  0  0  0  0
   -1.4220   -0.5550   -0.0080 C   0  0  0  0  0  1  0  0  0  0  0  0
  1 19  1  6  0  0  0
  1  7  1  0  0  0  0
  2  1  1  0  0  0  0
  3  2  1  0  0  0  0
  4  2  1  0  0  0  0
  4  6  1  0  0  0  0
  5  4  1  0  0  0  0
  6  9  1  6  0  0  0
  6  7  1  0  0  0  0
  7  8  1  0  0  0  0
 10  9  1  0  0  0  0
 11 10  1  0  0  0  0
 11 13  2  0  0  0  0
 12 11  1  0  0  0  0
 14 15  1  0  0  0  0
 14 12  2  0  0  0  0
 15 16  1  0  0  0  0
 16 18  1  0  0  0  0
 16 10  1  0  0  0  0
 17 15  2  0  0  0  0
 19 20  1  0  0  0  0
 20 21  1  0  0  0  0
 22 20  1  0  0  0  0
M  END
>  <REMARK>
  4 active torsions:
  status: ('A' for Active; 'I' for Inactive)
    1  A    between atoms: C_2  and  C_4 
    2  A    between atoms: C_4  and  C_5 
    3  A    between atoms: C_10  and  C_11 
    4  A    between atoms: C_11  and  N_12 

>  <TORSDO>
F 4

$$$$
C:\Users\siddh\.mgltools\PyRx\Ligands\ZINC000065407987_uff_E=543.72.pdbqt
 OpenBabel04182118313D

 22 23  0  0  1  0  0  0  0  0999 V2000
    0.7020   -0.5070    1.1320 N   0  0  0  0  0  0  0  0  0  0  0  0
    0.4510   -0.3260    2.4590 C   0  0  0  0  0  0  0  0  0  0  0  0
   -0.4700    0.3320    2.9130 O   0  0  0  0  0  0  0  0  0  0  0  0
    1.3650   -0.9600    3.2210 N   0  0  0  0  0  0  0  0  0  0  0  0
    2.2180   -1.5580    2.4040 N   0  0  0  0  0  0  0  0  0  0  0  0
    3.0260   -2.1170    2.6790 H   0  0  0  0  0  0  0  0  0  0  0  0
    1.8210   -1.2910    1.1380 C   0  0  0  0  0  0  0  0  0  0  0  0
    1.4200   -0.9850    4.2630 H   0  0  0  0  0  0  0  0  0  0  0  0
   -0.0630    0.0490   -0.0030 C   0  0  2  0  0  3  0  0  0  0  0  0
   -0.0830    1.5810    0.0510 C   0  0  0  0  0  1  0  0  0  0  0  0
   -1.4640   -0.5080   -0.0380 C   0  0  0  0  0  3  0  0  0  0  0  0
   -1.8800   -1.2030   -1.1140 O   0  0  0  0  0  0  0  0  0  0  0  0
   -2.7500   -1.5510   -1.1390 H   0  0  0  0  0  0  0  0  0  0  0  0
   -2.3110   -0.3100    0.9900 O   0  0  0  0  0  0  0  0  0  0  0  0
   -2.0300    0.1720    1.7430 H   0  0  0  0  0  0  0  0  0  0  0  0
    2.5690   -1.8010   -0.0340 C   0  0  0  0  0  0  0  0  0  0  0  0
    3.7520   -2.5180    0.0280 C   0  0  0  0  0  3  0  0  0  0  0  0
    4.1060   -2.7380   -1.2850 C   0  0  0  0  0  3  0  0  0  0  0  0
    3.1630   -2.1890   -2.0720 N   0  0  0  0  0  0  0  0  0  0  0  0
    2.2280   -1.6260   -1.3250 N   0  0  0  0  0  0  0  0  0  0  0  0
    3.1560   -2.1810   -3.5280 C   0  0  0  0  0  1  0  0  0  0  0  0
    1.3960   -1.1450   -1.6660 H   0  0  0  0  0  0  0  0  0  0  0  0
  1  7  1  0  0  0  0
  1  2  1  0  0  0  0
  2  3  2  0  0  0  0
  2  4  1  0  0  0  0
  4  8  1  0  0  0  0
  5  6  1  0  0  0  0
  5  4  1  0  0  0  0
  7  5  1  0  0  0  0
  9 10  1  1  0  0  0
  9  1  1  0  0  0  0
 11  9  1  0  0  0  0
 11 14  1  0  0  0  0
 12 11  1  0  0  0  0
 13 12  1  0  0  0  0
 14 15  1  0  0  0  0
 16 17  1  0  0  0  0
 16  7  2  0  0  0  0
 18 17  2  0  0  0  0
 19 20  1  0  0  0  0
 19 18  1  0  0  0  0
 20 16  1  0  0  0  0
 21 19  1  0  0  0  0
 22 20  1  0  0  0  0
M  END
>  <REMARK>
  5 active torsions:
  status: ('A' for Active; 'I' for Inactive)
    1  A    between atoms: C_2  and  C_3 
    2  A    between atoms: C_2  and  N_6 
    3  A    between atoms: C_3  and  O_4 
    4  A    between atoms: C_3  and  O_5 
    5  A    between atoms: C_12  and  C_13 

>  <TORSDO>
F 5

$$$$
C:\Users\siddh\.mgltools\PyRx\Ligands\ZINC000065407985_uff_E=565.32.pdbqt
 OpenBabel04182118313D

 22 23  0  0  1  0  0  0  0  0999 V2000
   -1.3320   -0.5070   -0.0180 N   0  0  0  0  0  0  0  0  0  0  0  0
   -2.3260   -0.3130    0.8900 C   0  0  0  0  0  0  0  0  0  0  0  0
   -2.2210    0.3510    1.9090 O   0  0  0  0  0  0  0  0  0  0  0  0
   -3.4530   -0.9570    0.5230 N   0  0  0  0  0  0  0  0  0  0  0  0
   -3.2050   -1.5700   -0.6250 N   0  0  0  0  0  0  0  0  0  0  0  0
   -3.8610   -2.1410   -1.1590 H   0  0  0  0  0  0  0  0  0  0  0  0
   -1.9200   -1.2990   -0.9600 C   0  0  0  0  0  0  0  0  0  0  0  0
   -4.3620   -0.9830    1.0350 H   0  0  0  0  0  0  0  0  0  0  0  0
    0.0420    0.0300    0.0440 C   0  0  1  0  0  3  0  0  0  0  0  0
    0.0160    1.5600    0.0190 C   0  0  0  0  0  1  0  0  0  0  0  0
    0.7830   -0.4860    1.2530 C   0  0  0  0  0  3  0  0  0  0  0  0
    0.1690   -1.2690    2.1630 O   0  0  0  0  0  0  0  0  0  0  0  0
    0.6430   -1.5810    2.9080 H   0  0  0  0  0  0  0  0  0  0  0  0
    2.0880   -0.1930    1.4090 O   0  0  0  0  0  0  0  0  0  0  0  0
    2.5250    0.3500    0.7830 H   0  0  0  0  0  0  0  0  0  0  0  0
   -1.2940   -1.8250   -2.2020 C   0  0  0  0  0  0  0  0  0  0  0  0
   -1.9140   -2.6350   -3.1410 C   0  0  0  0  0  3  0  0  0  0  0  0
   -0.9540   -2.8640   -4.1050 C   0  0  0  0  0  3  0  0  0  0  0  0
    0.1690   -2.2170   -3.7450 N   0  0  0  0  0  0  0  0  0  0  0  0
   -0.0280   -1.5900   -2.5980 N   0  0  0  0  0  0  0  0  0  0  0  0
    1.4300   -2.1950   -4.4760 C   0  0  0  0  0  1  0  0  0  0  0  0
    0.6590   -1.0250   -2.1000 H   0  0  0  0  0  0  0  0  0  0  0  0
  1  9  1  0  0  0  0
  1  2  1  0  0  0  0
  2  3  2  0  0  0  0
  4  2  1  0  0  0  0
  4  8  1  0  0  0  0
  5  4  1  0  0  0  0
  6  5  1  0  0  0  0
  7  5  1  0  0  0  0
  7  1  1  0  0  0  0
  9 10  1  1  0  0  0
  9 11  1  0  0  0  0
 11 14  1  0  0  0  0
 11 12  1  0  0  0  0
 12 13  1  0  0  0  0
 15 14  1  0  0  0  0
 16  7  2  0  0  0  0
 17 16  1  0  0  0  0
 18 19  1  0  0  0  0
 18 17  2  0  0  0  0
 19 20  1  0  0  0  0
 20 16  1  0  0  0  0
 20 22  1  0  0  0  0
 21 19  1  0  0  0  0
M  END
>  <REMARK>
  5 active torsions:
  status: ('A' for Active; 'I' for Inactive)
    1  A    between atoms: C_2  and  C_3 
    2  A    between atoms: C_2  and  N_6 
    3  A    between atoms: C_3  and  O_4 
    4  A    between atoms: C_3  and  O_5 
    5  A    between atoms: C_12  and  C_13 

>  <TORSDO>
F 5

$$$$
C:\Users\siddh\.mgltools\PyRx\Ligands\ZINC000065406900_uff_E=553.74.pdbqt
 OpenBabel04182118313D

 22 23  0  0  1  0  0  0  0  0999 V2000
   -1.4020   -0.5550    0.0190 C   0  0  2  0  0  3  0  0  0  0  0  0
   -2.0740   -0.9920    1.1110 N   0  0  0  0  0  0  0  0  0  0  0  0
   -1.7080   -1.0590    2.0610 H   0  0  0  0  0  0  0  0  0  0  0  0
   -3.2970   -1.3170    0.7130 N   0  0  0  0  0  0  0  0  0  0  0  0
   -3.3640   -1.0870   -0.6160 C   0  0  0  0  0  0  0  0  0  0  0  0
   -4.3460   -1.3130   -1.3040 O   0  0  0  0  0  0  0  0  0  0  0  0
   -2.1870   -0.6090   -1.0870 N   0  0  0  0  0  0  0  0  0  0  0  0
   -4.0450   -1.6970    1.3340 H   0  0  0  0  0  0  0  0  0  0  0  0
    0.0320   -0.0820    0.0360 C   0  0  1  0  0  3  0  0  0  0  0  0
    0.1090    1.4440   -0.1330 C   0  0  0  0  0  1  0  0  0  0  0  0
    0.7200   -0.5050    1.2580 N   0  0  0  0  0  0  0  0  0  0  0  0
    1.6500   -1.4480    1.2600 N   0  0  0  0  0  0  0  0  0  0  0  0
    2.0750   -1.6150    2.5250 C   0  0  0  0  0  2  0  0  0  0  0  0
    1.9870   -1.9580    0.4440 H   0  0  0  0  0  0  0  0  0  0  0  0
    1.3980   -0.7360    3.3480 C   0  0  0  0  0  3  0  0  0  0  0  0
    0.5410   -0.0490    2.5140 C   0  0  0  0  0  3  0  0  0  0  0  0
   -1.8410   -0.3130   -2.4810 C   0  0  0  0  0  2  0  0  0  0  0  0
   -2.3520    1.0280   -2.9130 C   0  0  0  0  0  3  0  0  0  0  0  0
   -3.0120    1.8250   -2.0510 O   0  0  0  0  0  0  0  0  0  0  0  0
   -3.3270    2.6610   -2.3340 H   0  0  0  0  0  0  0  0  0  0  0  0
   -2.1050    1.4590   -4.1650 O   0  0  0  0  0  0  0  0  0  0  0  0
   -1.6470    0.9080   -4.7680 H   0  0  0  0  0  0  0  0  0  0  0  0
  1  9  1  6  0  0  0
  1  2  1  0  0  0  0
  2  3  1  0  0  0  0
  4  2  1  0  0  0  0
  4  8  1  0  0  0  0
  5  4  1  0  0  0  0
  6  5  2  0  0  0  0
  7  5  1  0  0  0  0
  7  1  1  0  0  0  0
  9 10  1  1  0  0  0
  9 11  1  0  0  0  0
 11 12  1  0  0  0  0
 11 16  1  0  0  0  0
 12 13  1  0  0  0  0
 13 15  1  0  0  0  0
 14 12  1  0  0  0  0
 16 15  2  0  0  0  0
 17  7  1  0  0  0  0
 18 17  1  0  0  0  0
 18 19  1  0  0  0  0
 20 19  1  0  0  0  0
 21 18  1  0  0  0  0
 22 21  1  0  0  0  0
M  END
>  <REMARK>
  6 active torsions:
  status: ('A' for Active; 'I' for Inactive)
    1  A    between atoms: C_2  and  C_3 
    2  A    between atoms: C_2  and  N_14 
    3  A    between atoms: N_9  and  C_10 
    4  A    between atoms: C_10  and  C_11 
    5  A    between atoms: C_11  and  O_12 
    6  A    between atoms: C_11  and  O_13 

>  <TORSDO>
F 6

$$$$
C:\Users\siddh\.mgltools\PyRx\Ligands\ZINC000065398221_uff_E=390.60.pdbqt
 OpenBabel04182118313D

 19 19  0  0  1  0  0  0  0  0999 V2000
   -1.7290   -1.9490    0.5680 C   0  0  1  0  0  3  0  0  0  0  0  0
   -0.8520   -2.9820    0.4820 N   0  0  0  0  0  0  0  0  0  0  0  0
    0.0930   -2.9430    0.1000 H   0  0  0  0  0  0  0  0  0  0  0  0
   -1.4550   -4.0510    0.9860 N   0  0  0  0  0  0  0  0  0  0  0  0
   -2.6860   -3.6680    1.3880 C   0  0  0  0  0  0  0  0  0  0  0  0
   -3.4950   -4.4070    1.9240 O   0  0  0  0  0  0  0  0  0  0  0  0
   -2.8920   -2.3540    1.1340 N   0  0  0  0  0  0  0  0  0  0  0  0
   -1.0280   -5.0000    1.0610 H   0  0  0  0  0  0  0  0  0  0  0  0
   -4.0630   -1.5550    1.4900 C   0  0  0  0  0  2  0  0  0  0  0  0
   -3.9080   -0.9750    2.8680 C   0  0  0  0  0  3  0  0  0  0  0  0
   -2.8080   -1.2330    3.6060 O   0  0  0  0  0  0  0  0  0  0  0  0
   -2.7230   -0.8650    4.4630 H   0  0  0  0  0  0  0  0  0  0  0  0
   -4.8760   -0.1890    3.3740 O   0  0  0  0  0  0  0  0  0  0  0  0
   -5.6430   -0.0060    2.8680 H   0  0  0  0  0  0  0  0  0  0  0  0
   -1.4330   -0.5310    0.1150 C   0  0  1  0  0  3  0  0  0  0  0  0
    0.0780   -0.3510   -0.1540 C   0  0  0  0  0  2  0  0  0  0  0  0
    0.4520    1.0920   -0.4800 C   0  0  0  0  0  1  0  0  0  0  0  0
   -2.1830   -0.2740   -1.0640 O   0  0  0  0  0  0  0  0  0  0  0  0
   -2.7780    1.0100   -1.0560 C   0  0  0  0  0  1  0  0  0  0  0  0
  1 15  1  1  0  0  0
  1  7  1  0  0  0  0
  2  1  1  0  0  0  0
  2  4  1  0  0  0  0
  3  2  1  0  0  0  0
  4  8  1  0  0  0  0
  4  5  1  0  0  0  0
  5  6  2  0  0  0  0
  7  5  1  0  0  0  0
  7  9  1  0  0  0  0
  9 10  1  0  0  0  0
 10 13  1  0  0  0  0
 10 11  1  0  0  0  0
 11 12  1  0  0  0  0
 14 13  1  0  0  0  0
 15 16  1  6  0  0  0
 17 16  1  0  0  0  0
 18 19  1  0  0  0  0
 18 15  1  0  0  0  0
M  END
>  <REMARK>
  7 active torsions:
  status: ('A' for Active; 'I' for Inactive)
    1  A    between atoms: C_2  and  C_3 
    2  A    between atoms: C_3  and  O_4 
    3  A    between atoms: C_3  and  C_6 
    4  A    between atoms: N_12  and  C_13 
    5  A    between atoms: C_13  and  C_14 
    6  A    between atoms: C_14  and  O_15 
    7  A    between atoms: C_14  and  O_16 

>  <TORSDO>
F 7

$$$$
C:\Users\siddh\.mgltools\PyRx\Ligands\ZINC000065398220_uff_E=368.93.pdbqt
 OpenBabel04182118313D

 19 19  0  0  1  0  0  0  0  0999 V2000
   -1.4540   -1.9420   -0.1100 C   0  0  1  0  0  3  0  0  0  0  0  0
   -1.9280   -2.6330   -1.1750 N   0  0  0  0  0  0  0  0  0  0  0  0
   -2.4010   -2.2400   -1.9890 H   0  0  0  0  0  0  0  0  0  0  0  0
   -1.6620   -3.9140   -0.9620 N   0  0  0  0  0  0  0  0  0  0  0  0
   -1.0230   -4.0020    0.2250 C   0  0  0  0  0  0  0  0  0  0  0  0
   -0.6310   -5.0460    0.7180 O   0  0  0  0  0  0  0  0  0  0  0  0
   -0.8830   -2.7800    0.7930 N   0  0  0  0  0  0  0  0  0  0  0  0
   -1.9080   -4.6930   -1.6120 H   0  0  0  0  0  0  0  0  0  0  0  0
   -0.2270   -2.4730    2.0660 C   0  0  0  0  0  2  0  0  0  0  0  0
    1.2670   -2.4200    1.8900 C   0  0  0  0  0  3  0  0  0  0  0  0
    1.8250   -2.6290    0.6800 O   0  0  0  0  0  0  0  0  0  0  0  0
    2.7560   -2.5940    0.5810 H   0  0  0  0  0  0  0  0  0  0  0  0
    2.0520   -2.1090    2.9370 O   0  0  0  0  0  0  0  0  0  0  0  0
    1.6720   -1.9630    3.7810 H   0  0  0  0  0  0  0  0  0  0  0  0
   -1.5390   -0.4350   -0.0050 C   0  0  2  0  0  3  0  0  0  0  0  0
   -0.1380    0.2030    0.0940 C   0  0  0  0  0  2  0  0  0  0  0  0
   -0.1960    1.7260    0.1280 C   0  0  0  0  0  1  0  0  0  0  0  0
   -2.3050   -0.0730    1.1310 O   0  0  0  0  0  0  0  0  0  0  0  0
   -3.6520    0.1510    0.7730 C   0  0  0  0  0  1  0  0  0  0  0  0
  1 15  1  6  0  0  0
  1  7  1  0  0  0  0
  2  4  1  0  0  0  0
  2  1  1  0  0  0  0
  3  2  1  0  0  0  0
  4  5  1  0  0  0  0
  5  6  2  0  0  0  0
  5  7  1  0  0  0  0
  7  9  1  0  0  0  0
  8  4  1  0  0  0  0
 10  9  1  0  0  0  0
 10 13  1  0  0  0  0
 11 10  1  0  0  0  0
 12 11  1  0  0  0  0
 13 14  1  0  0  0  0
 15 16  1  1  0  0  0
 15 18  1  0  0  0  0
 16 17  1  0  0  0  0
 19 18  1  0  0  0  0
M  END
>  <REMARK>
  7 active torsions:
  status: ('A' for Active; 'I' for Inactive)
    1  A    between atoms: C_2  and  C_3 
    2  A    between atoms: C_3  and  O_4 
    3  A    between atoms: C_3  and  C_6 
    4  A    between atoms: N_12  and  C_13 
    5  A    between atoms: C_13  and  C_14 
    6  A    between atoms: C_14  and  O_15 
    7  A    between atoms: C_14  and  O_16 

>  <TORSDO>
F 7

$$$$
C:\Users\siddh\.mgltools\PyRx\Ligands\ZINC000065394805_uff_E=376.52.pdbqt
 OpenBabel04182118313D

 19 19  0  0  1  0  0  0  0  0999 V2000
   -1.2360   -1.9340   -0.7260 C   0  0  2  0  0  3  0  0  0  0  0  0
   -1.2950   -3.1540   -0.1360 N   0  0  0  0  0  0  0  0  0  0  0  0
   -1.3820   -3.3410    0.8630 H   0  0  0  0  0  0  0  0  0  0  0  0
   -1.2200   -4.0600   -1.1030 N   0  0  0  0  0  0  0  0  0  0  0  0
   -1.1280   -3.3940   -2.2740 C   0  0  0  0  0  0  0  0  0  0  0  0
   -1.0610   -3.9290   -3.3680 O   0  0  0  0  0  0  0  0  0  0  0  0
   -1.1290   -2.0560   -2.0700 N   0  0  0  0  0  0  0  0  0  0  0  0
   -1.2380   -5.0930   -0.9590 H   0  0  0  0  0  0  0  0  0  0  0  0
   -1.0890   -1.0010   -3.0760 C   0  0  0  0  0  2  0  0  0  0  0  0
   -2.5120   -0.6440   -3.5190 C   0  0  0  0  0  2  0  0  0  0  0  0
   -2.5140    0.4550   -4.5440 C   0  0  0  0  0  3  0  0  0  0  0  0
   -1.3600    1.0070   -4.9710 O   0  0  0  0  0  0  0  0  0  0  0  0
   -1.3770    1.6910   -5.6100 H   0  0  0  0  0  0  0  0  0  0  0  0
   -3.6840    0.8970   -5.0420 O   0  0  0  0  0  0  0  0  0  0  0  0
   -4.4900    0.5190   -4.7510 H   0  0  0  0  0  0  0  0  0  0  0  0
   -1.2820   -0.6170    0.0180 C   0  0  1  0  0  3  0  0  0  0  0  0
   -1.7160   -0.8270    1.4720 C   0  0  0  0  0  1  0  0  0  0  0  0
    0.0100   -0.0340   -0.0350 O   0  0  0  0  0  0  0  0  0  0  0  0
   -0.0580    1.3770   -0.0060 C   0  0  0  0  0  1  0  0  0  0  0  0
  1  2  1  0  0  0  0
  1 16  1  1  0  0  0
  2  3  1  0  0  0  0
  4  8  1  0  0  0  0
  4  2  1  0  0  0  0
  5  7  1  0  0  0  0
  5  4  1  0  0  0  0
  6  5  2  0  0  0  0
  7  1  1  0  0  0  0
  9  7  1  0  0  0  0
 10  9  1  0  0  0  0
 11 10  1  0  0  0  0
 12 11  1  0  0  0  0
 13 12  1  0  0  0  0
 14 15  1  0  0  0  0
 14 11  1  0  0  0  0
 16 17  1  1  0  0  0
 18 19  1  0  0  0  0
 18 16  1  0  0  0  0
M  END
>  <REMARK>
  7 active torsions:
  status: ('A' for Active; 'I' for Inactive)
    1  A    between atoms: O_2  and  C_3 
    2  A    between atoms: C_3  and  C_5 
    3  A    between atoms: N_11  and  C_12 
    4  A    between atoms: C_12  and  C_13 
    5  A    between atoms: C_13  and  C_14 
    6  A    between atoms: C_14  and  O_15 
    7  A    between atoms: C_14  and  O_16 

>  <TORSDO>
F 7

$$$$
C:\Users\siddh\.mgltools\PyRx\Ligands\ZINC000065373232_uff_E=457.33.pdbqt
 OpenBabel04182118313D

 21 22  0  0  1  0  0  0  0  0999 V2000
   -1.2600    2.0200   -0.0330 C   0  0  2  0  0  3  0  0  0  0  0  0
   -1.6010    2.5730   -1.4290 C   0  0  0  0  0  2  0  0  0  0  0  0
   -2.3340    3.8020   -1.0360 C   0  0  0  0  0  0  0  0  0  0  0  0
   -2.9390    4.5080   -1.8290 O   0  0  0  0  0  0  0  0  0  0  0  0
   -2.1540    4.1360    0.2550 N   0  0  0  0  0  0  0  0  0  0  0  0
   -1.2440    3.2390    0.9110 C   0  0  0  0  0  2  0  0  0  0  0  0
   -2.5900    5.3920    0.8360 C   0  0  0  0  0  2  0  0  0  0  0  0
   -3.9610    5.1900    1.4750 C   0  0  0  0  0  2  0  0  0  0  0  0
   -4.4990    6.4790    2.0950 C   0  0  0  0  0  2  0  0  0  0  0  0
   -5.7980    6.2240    2.7080 N   0  0  0  0  0  0  0  0  0  0  0  0
   -6.8530    5.7580    2.0640 N   0  0  0  0  0  0  0  0  0  0  0  0
   -7.8380    5.6510    2.9760 C   0  0  0  0  0  2  0  0  0  0  0  0
   -6.9110    5.5260    1.0730 H   0  0  0  0  0  0  0  0  0  0  0  0
   -7.4210    6.0500    4.1990 N   0  0  0  0  0  0  0  0  0  0  0  0
   -6.1380    6.4030    3.9950 C   0  0  0  0  0  2  0  0  0  0  0  0
   -7.9530    6.0770    5.0690 H   0  0  0  0  0  0  0  0  0  0  0  0
   -0.0220    1.1760    0.0140 C   0  0  0  0  0  3  0  0  0  0  0  0
   -0.1020   -0.1310    0.3280 O   0  0  0  0  0  0  0  0  0  0  0  0
   -0.2400   -0.8840    0.8680 H   0  0  0  0  0  0  0  0  0  0  0  0
    1.1770    1.7240   -0.2640 O   0  0  0  0  0  0  0  0  0  0  0  0
    1.2370    2.6330   -0.4830 H   0  0  0  0  0  0  0  0  0  0  0  0
  1 17  1  6  0  0  0
  1  6  1  0  0  0  0
  2  3  1  0  0  0  0
  2  1  1  0  0  0  0
  3  5  1  0  0  0  0
  4  3  2  0  0  0  0
  5  7  1  0  0  0  0
  5  6  1  0  0  0  0
  7  8  1  0  0  0  0
  8  9  1  0  0  0  0
  9 10  1  0  0  0  0
 10 15  1  0  0  0  0
 11 10  1  0  0  0  0
 11 12  1  0  0  0  0
 12 14  1  0  0  0  0
 13 11  1  0  0  0  0
 14 16  1  0  0  0  0
 15 14  1  0  0  0  0
 17 18  1  0  0  0  0
 18 19  1  0  0  0  0
 20 17  1  0  0  0  0
 21 20  1  0  0  0  0
M  END
>  <REMARK>
  7 active torsions:
  status: ('A' for Active; 'I' for Inactive)
    1  A    between atoms: O_1  and  C_2 
    2  A    between atoms: C_2  and  O_3 
    3  A    between atoms: C_2  and  C_4 
    4  A    between atoms: N_8  and  C_9 
    5  A    between atoms: C_9  and  C_10 
    6  A    between atoms: C_10  and  C_11 
    7  A    between atoms: C_11  and  N_12 

>  <TORSDO>
F 7

$$$$
C:\Users\siddh\.mgltools\PyRx\Ligands\ZINC000062938568_uff_E=449.78.pdbqt
 OpenBabel04182118313D

 18 19  0  0  1  0  0  0  0  0999 V2000
   -0.0100    1.4490   -0.1050 C   0  0  0  0  0  1  0  0  0  0  0  0
   -0.0320   -0.0080   -0.0560 N   0  0  0  0  0  0  0  0  0  0  0  0
   -0.2690   -0.7500   -1.1260 N   0  0  0  0  0  0  0  0  0  0  0  0
   -0.3000   -2.0250   -0.7740 N   0  0  0  0  0  0  0  0  0  0  0  0
   -0.0980   -2.1310    0.5320 N   0  0  0  0  0  0  0  0  0  0  0  0
   -0.0820   -2.9890    1.0840 H   0  0  0  0  0  0  0  0  0  0  0  0
    0.0830   -0.8730    0.9800 C   0  0  2  0  0  3  0  0  0  0  0  0
    0.2790   -0.5550    2.3720 N   0  0  2  0  0  0  0  0  0  0  0  0
    1.2610    0.4670    2.7330 C   0  0  0  0  0  2  0  0  0  0  0  0
    1.0730    0.9500    4.1760 C   0  0  0  0  0  2  0  0  0  0  0  0
    1.0360   -0.2320    5.1590 C   0  0  2  0  0  3  0  0  0  0  0  0
   -0.1110   -1.1590    4.7360 C   0  0  0  0  0  2  0  0  0  0  0  0
    0.1290   -1.6660    3.3090 C   0  0  0  0  0  2  0  0  0  0  0  0
    0.8610    0.2370    6.5860 C   0  0  0  0  0  3  0  0  0  0  0  0
    0.6310   -0.6600    7.5650 O   0  0  0  0  0  0  0  0  0  0  0  0
    0.5230   -0.3700    8.4500 H   0  0  0  0  0  0  0  0  0  0  0  0
    0.9700    1.5440    6.9030 O   0  0  0  0  0  0  0  0  0  0  0  0
    1.1290    2.1770    6.2300 H   0  0  0  0  0  0  0  0  0  0  0  0
  1  2  1  0  0  0  0
  3  4  2  0  0  0  0
  3  2  1  0  0  0  0
  4  5  1  0  0  0  0
  5  7  1  0  0  0  0
  5  6  1  0  0  0  0
  7  2  1  1  0  0  0
  7  8  1  0  0  0  0
  8  9  1  6  0  0  0
  8 13  1  0  0  0  0
  9 10  1  0  0  0  0
 10 11  1  0  0  0  0
 11 14  1  1  0  0  0
 12 11  1  0  0  0  0
 13 12  1  0  0  0  0
 14 17  1  0  0  0  0
 14 15  1  0  0  0  0
 15 16  1  0  0  0  0
 18 17  1  0  0  0  0
M  END
>  <REMARK>
  3 active torsions:
  status: ('A' for Active; 'I' for Inactive)
       I    between atoms: C_7  and  N_8 
    1  A    between atoms: C_11  and  C_12 
    2  A    between atoms: C_12  and  O_13 
    3  A    between atoms: C_12  and  O_14 

>  <TORSDO>
F 3

$$$$
C:\Users\siddh\.mgltools\PyRx\Ligands\ZINC000062913629_uff_E=334.29.pdbqt
 OpenBabel04182118313D

 19 20  0  0  1  0  0  0  0  0999 V2000
   -0.0380    1.4820    0.0310 C   0  0  0  0  0  1  0  0  0  0  0  0
   -0.0220   -0.0680   -0.0490 C   0  0  2  0  0  0  0  0  0  0  0  0
   -1.4350   -0.6100    0.1940 C   0  0  0  0  0  2  0  0  0  0  0  0
   -1.5880   -0.5200    1.7150 C   0  0  0  0  0  2  0  0  0  0  0  0
   -0.2460   -0.8040    2.1800 N   0  0  0  0  0  0  0  0  0  0  0  0
   -0.0000   -1.2970    3.4400 C   0  0  0  0  0  0  0  0  0  0  0  0
   -0.9370   -1.4700    4.2060 O   0  0  0  0  0  0  0  0  0  0  0  0
    0.7520   -0.6800    1.1360 C   0  0  0  0  0  2  0  0  0  0  0  0
    1.3960   -1.7130    3.8960 C   0  0  2  0  0  3  0  0  0  0  0  0
    1.2840   -2.4550    5.1040 O   0  0  0  0  0  0  0  0  0  0  0  0
    2.5660   -2.8790    5.5290 C   0  0  0  0  0  2  0  0  0  0  0  0
    3.4680   -1.6630    5.7640 C   0  0  0  0  0  2  0  0  0  0  0  0
    3.5920   -0.9150    4.5730 O   0  0  0  0  0  0  0  0  0  0  0  0
    2.3090   -0.4890    4.1560 C   0  0  0  0  0  2  0  0  0  0  0  0
    0.5630   -0.5230   -1.3750 C   0  0  0  0  0  3  0  0  0  0  0  0
    1.0010    0.3690   -2.2860 O   0  0  0  0  0  0  0  0  0  0  0  0
    1.3580    0.0710   -3.0990 H   0  0  0  0  0  0  0  0  0  0  0  0
    0.6650   -1.8400   -1.6450 O   0  0  0  0  0  0  0  0  0  0  0  0
    0.3650   -2.4710   -1.0210 H   0  0  0  0  0  0  0  0  0  0  0  0
  2  1  1  1  0  0  0
  2  3  1  0  0  0  0
  2  8  1  0  0  0  0
  3  4  1  0  0  0  0
  4  5  1  0  0  0  0
  5  6  1  0  0  0  0
  6  7  2  0  0  0  0
  8  5  1  0  0  0  0
  9  6  1  1  0  0  0
  9 14  1  0  0  0  0
  9 10  1  0  0  0  0
 10 11  1  0  0  0  0
 11 12  1  0  0  0  0
 13 12  1  0  0  0  0
 14 13  1  0  0  0  0
 15  2  1  0  0  0  0
 16 15  1  0  0  0  0
 17 16  1  0  0  0  0
 18 15  1  0  0  0  0
 18 19  1  0  0  0  0
M  END
>  <REMARK>
  4 active torsions:
  status: ('A' for Active; 'I' for Inactive)
    1  A    between atoms: C_2  and  C_3 
    2  A    between atoms: C_3  and  O_4 
    3  A    between atoms: C_3  and  O_5 
       I    between atoms: N_8  and  C_9 
    4  A    between atoms: C_9  and  C_11 

>  <TORSDO>
F 4

$$$$
C:\Users\siddh\.mgltools\PyRx\Ligands\ZINC000062913628_uff_E=432.35.pdbqt
 OpenBabel04182118313D

 19 20  0  0  1  0  0  0  0  0999 V2000
   -0.4290    1.1360   -0.1900 C   0  0  0  0  0  1  0  0  0  0  0  0
   -0.2210   -0.3870   -0.1390 C   0  0  1  0  0  0  0  0  0  0  0  0
    0.7070   -0.8450   -1.2970 C   0  0  0  0  0  2  0  0  0  0  0  0
    2.0830   -0.9580   -0.6590 C   0  0  0  0  0  2  0  0  0  0  0  0
    1.7770   -1.3650    0.6880 N   0  0  0  0  0  0  0  0  0  0  0  0
    2.4880   -2.3110    1.3900 C   0  0  0  0  0  0  0  0  0  0  0  0
    3.4530   -2.8520    0.8620 O   0  0  0  0  0  0  0  0  0  0  0  0
    0.5460   -0.7780    1.1570 C   0  0  0  0  0  2  0  0  0  0  0  0
    2.1300   -2.7000    2.8270 C   0  0  1  0  0  3  0  0  0  0  0  0
    2.9440   -3.7820    3.2570 O   0  0  0  0  0  0  0  0  0  0  0  0
    2.6400   -4.1110    4.6030 C   0  0  0  0  0  2  0  0  0  0  0  0
    2.8790   -2.9020    5.5120 C   0  0  0  0  0  2  0  0  0  0  0  0
    2.0660   -1.8240    5.1060 O   0  0  0  0  0  0  0  0  0  0  0  0
    2.3650   -1.4910    3.7660 C   0  0  0  0  0  2  0  0  0  0  0  0
   -1.5760   -1.0810   -0.2450 C   0  0  0  0  0  3  0  0  0  0  0  0
   -2.3470   -0.8830   -1.3300 O   0  0  0  0  0  0  0  0  0  0  0  0
   -3.1800   -1.3080   -1.3970 H   0  0  0  0  0  0  0  0  0  0  0  0
   -2.0130   -1.9140    0.7220 O   0  0  0  0  0  0  0  0  0  0  0  0
   -1.4890   -2.0640    1.4840 H   0  0  0  0  0  0  0  0  0  0  0  0
  2  1  1  6  0  0  0
  2  8  1  0  0  0  0
  3  4  1  0  0  0  0
  3  2  1  0  0  0  0
  4  5  1  0  0  0  0
  5  8  1  0  0  0  0
  5  6  1  0  0  0  0
  7  6  2  0  0  0  0
  9  6  1  6  0  0  0
  9 10  1  0  0  0  0
  9 14  1  0  0  0  0
 10 11  1  0  0  0  0
 11 12  1  0  0  0  0
 13 12  1  0  0  0  0
 14 13  1  0  0  0  0
 15  2  1  0  0  0  0
 15 18  1  0  0  0  0
 16 15  1  0  0  0  0
 17 16  1  0  0  0  0
 18 19  1  0  0  0  0
M  END
>  <REMARK>
  4 active torsions:
  status: ('A' for Active; 'I' for Inactive)
    1  A    between atoms: C_2  and  C_3 
    2  A    between atoms: C_3  and  O_4 
    3  A    between atoms: C_3  and  O_5 
       I    between atoms: N_8  and  C_9 
    4  A    between atoms: C_9  and  C_11 

>  <TORSDO>
F 4

$$$$
C:\Users\siddh\.mgltools\PyRx\Ligands\ZINC000062913447_uff_E=283.30.pdbqt
 OpenBabel04182118313D

 20 20  0  0  1  0  0  0  0  0999 V2000
   -2.4970   -2.7680   -0.4230 C   0  0  0  0  0  0  0  0  0  0  0  0
   -3.3870   -1.9960   -0.7530 O   0  0  0  0  0  0  0  0  0  0  0  0
   -2.6680   -4.1140   -0.6520 N   0  0  0  0  0  0  0  0  0  0  0  0
   -1.6630   -5.1300   -0.4370 C   0  0  0  0  0  2  0  0  0  0  0  0
   -1.8610   -6.0220   -1.6520 C   0  0  0  0  0  2  0  0  0  0  0  0
   -3.3930   -6.0490   -1.8220 C   0  0  1  0  0  0  0  0  0  0  0  0
   -4.0520   -7.0450   -0.8430 C   0  0  0  0  0  1  0  0  0  0  0  0
   -3.7740   -4.5880   -1.4660 C   0  0  0  0  0  2  0  0  0  0  0  0
   -1.1860   -2.1940    0.1320 C   0  0  2  0  0  3  0  0  0  0  0  0
   -0.9590   -2.6150    1.5920 C   0  0  0  0  0  1  0  0  0  0  0  0
   -1.1480   -0.7310    0.0300 N   0  0  0  0  0  0  0  0  0  0  0  0
    0.0090   -0.0230    0.1650 C   0  0  0  0  0  0  0  0  0  0  0  0
   -0.0120    1.4710    0.0290 C   0  0  0  0  0  1  0  0  0  0  0  0
    1.0710   -0.5920    0.3720 O   0  0  0  0  0  0  0  0  0  0  0  0
   -2.0050   -0.2070   -0.1970 H   0  0  0  0  0  0  0  0  0  0  0  0
   -3.7700   -6.4510   -3.2370 C   0  0  0  0  0  3  0  0  0  0  0  0
   -3.3970   -7.6550   -3.7140 O   0  0  0  0  0  0  0  0  0  0  0  0
   -3.6290   -7.9060   -4.5870 H   0  0  0  0  0  0  0  0  0  0  0  0
   -4.4550   -5.6110   -4.0380 O   0  0  0  0  0  0  0  0  0  0  0  0
   -4.7200   -4.7710   -3.7190 H   0  0  0  0  0  0  0  0  0  0  0  0
  1  9  1  0  0  0  0
  2  1  2  0  0  0  0
  3  4  1  0  0  0  0
  3  1  1  0  0  0  0
  5  4  1  0  0  0  0
  6  5  1  0  0  0  0
  6  8  1  0  0  0  0
  6  7  1  1  0  0  0
  8  3  1  0  0  0  0
  9 10  1  1  0  0  0
 11  9  1  0  0  0  0
 11 12  1  0  0  0  0
 12 14  2  0  0  0  0
 13 12  1  0  0  0  0
 15 11  1  0  0  0  0
 16  6  1  0  0  0  0
 17 16  1  0  0  0  0
 18 17  1  0  0  0  0
 19 20  1  0  0  0  0
 19 16  1  0  0  0  0
M  END
>  <REMARK>
  5 active torsions:
  status: ('A' for Active; 'I' for Inactive)
       I    between atoms: C_2  and  N_4 
    1  A    between atoms: N_4  and  C_5 
    2  A    between atoms: C_5  and  C_7 
       I    between atoms: C_7  and  N_9 
    3  A    between atoms: C_12  and  C_14 
    4  A    between atoms: C_14  and  O_15 
    5  A    between atoms: C_14  and  O_16 

>  <TORSDO>
F 5

$$$$
C:\Users\siddh\.mgltools\PyRx\Ligands\ZINC000062913446_uff_E=257.45.pdbqt
 OpenBabel04182118313D

 20 20  0  0  1  0  0  0  0  0999 V2000
   -2.4540   -2.7610    0.5180 C   0  0  0  0  0  0  0  0  0  0  0  0
   -3.3260   -2.0040    0.9200 O   0  0  0  0  0  0  0  0  0  0  0  0
   -2.6310   -4.1160    0.6670 N   0  0  0  0  0  0  0  0  0  0  0  0
   -1.6630   -5.1230    0.2960 C   0  0  0  0  0  2  0  0  0  0  0  0
   -2.0620   -6.3010    1.1760 C   0  0  0  0  0  2  0  0  0  0  0  0
   -3.5930   -6.1900    1.2440 C   0  0  2  0  0  0  0  0  0  0  0  0
   -4.2320   -6.7350   -0.0560 C   0  0  0  0  0  1  0  0  0  0  0  0
   -3.7840   -4.6640    1.3580 C   0  0  0  0  0  2  0  0  0  0  0  0
   -1.1620   -2.1650   -0.0630 C   0  0  1  0  0  3  0  0  0  0  0  0
   -0.9540   -2.5510   -1.5360 C   0  0  0  0  0  1  0  0  0  0  0  0
   -1.1440   -0.7040    0.0360 N   0  0  0  0  0  0  0  0  0  0  0  0
    0.0160    0.0090   -0.0490 C   0  0  0  0  0  0  0  0  0  0  0  0
   -0.0190    1.5070    0.0150 C   0  0  0  0  0  1  0  0  0  0  0  0
    1.0920   -0.5610   -0.1630 O   0  0  0  0  0  0  0  0  0  0  0  0
   -2.0220   -0.1860    0.1800 H   0  0  0  0  0  0  0  0  0  0  0  0
   -4.1950   -6.9250    2.4240 C   0  0  0  0  0  3  0  0  0  0  0  0
   -3.4160   -7.6490    3.2530 O   0  0  0  0  0  0  0  0  0  0  0  0
   -3.7980   -8.1000    3.9800 H   0  0  0  0  0  0  0  0  0  0  0  0
   -5.5190   -6.8490    2.6620 O   0  0  0  0  0  0  0  0  0  0  0  0
   -6.0690   -6.3480    2.0920 H   0  0  0  0  0  0  0  0  0  0  0  0
  1  3  1  0  0  0  0
  1  2  2  0  0  0  0
  3  8  1  0  0  0  0
  4  3  1  0  0  0  0
  4  5  1  0  0  0  0
  5  6  1  0  0  0  0
  6  7  1  6  0  0  0
  6  8  1  0  0  0  0
  6 16  1  0  0  0  0
  9 10  1  6  0  0  0
  9 11  1  0  0  0  0
  9  1  1  0  0  0  0
 11 15  1  0  0  0  0
 12 13  1  0  0  0  0
 12 11  1  0  0  0  0
 14 12  2  0  0  0  0
 16 19  1  0  0  0  0
 16 17  1  0  0  0  0
 17 18  1  0  0  0  0
 20 19  1  0  0  0  0
M  END
>  <REMARK>
  5 active torsions:
  status: ('A' for Active; 'I' for Inactive)
       I    between atoms: C_2  and  N_4 
    1  A    between atoms: N_4  and  C_5 
    2  A    between atoms: C_5  and  C_7 
       I    between atoms: C_7  and  N_9 
    3  A    between atoms: C_12  and  C_14 
    4  A    between atoms: C_14  and  O_15 
    5  A    between atoms: C_14  and  O_16 

>  <TORSDO>
F 5

$$$$
C:\Users\siddh\.mgltools\PyRx\Ligands\ZINC000062913445_uff_E=258.45.pdbqt
 OpenBabel04182118313D

 20 20  0  0  1  0  0  0  0  0999 V2000
   -2.4320   -2.6950   -0.6310 C   0  0  0  0  0  0  0  0  0  0  0  0
   -3.1870   -1.9130   -1.1910 O   0  0  0  0  0  0  0  0  0  0  0  0
   -2.7910   -4.0150   -0.5260 N   0  0  0  0  0  0  0  0  0  0  0  0
   -1.9680   -5.0470    0.0680 C   0  0  0  0  0  2  0  0  0  0  0  0
   -2.9790   -6.1680    0.3050 C   0  0  0  0  0  2  0  0  0  0  0  0
   -3.9310   -6.0430   -0.8910 C   0  0  2  0  0  0  0  0  0  0  0  0
   -3.2760   -6.6640   -2.1480 C   0  0  0  0  0  1  0  0  0  0  0  0
   -4.0620   -4.5100   -1.0170 C   0  0  0  0  0  2  0  0  0  0  0  0
   -1.1030   -2.1840   -0.0740 C   0  0  2  0  0  3  0  0  0  0  0  0
   -1.2180   -1.9550    1.4460 C   0  0  0  0  0  1  0  0  0  0  0  0
   -0.6890   -0.9390   -0.7190 N   0  0  0  0  0  0  0  0  0  0  0  0
    0.5900   -0.4760   -0.6330 C   0  0  0  0  0  0  0  0  0  0  0  0
    0.9710    0.7970   -1.3280 C   0  0  0  0  0  1  0  0  0  0  0  0
    1.4410   -1.1010   -0.0170 O   0  0  0  0  0  0  0  0  0  0  0  0
   -1.3580   -0.4080   -1.2950 H   0  0  0  0  0  0  0  0  0  0  0  0
   -5.2770   -6.7010   -0.6760 C   0  0  0  0  0  3  0  0  0  0  0  0
   -5.5370   -7.3790    0.4600 O   0  0  0  0  0  0  0  0  0  0  0  0
   -6.3740   -7.7830    0.5830 H   0  0  0  0  0  0  0  0  0  0  0  0
   -6.2340   -6.6020   -1.6190 O   0  0  0  0  0  0  0  0  0  0  0  0
   -6.0620   -6.1330   -2.4120 H   0  0  0  0  0  0  0  0  0  0  0  0
  1  3  1  0  0  0  0
  1  9  1  0  0  0  0
  2  1  2  0  0  0  0
  3  4  1  0  0  0  0
  4  5  1  0  0  0  0
  6  7  1  6  0  0  0
  6 16  1  0  0  0  0
  6  5  1  0  0  0  0
  8  6  1  0  0  0  0
  8  3  1  0  0  0  0
  9 10  1  1  0  0  0
 11 12  1  0  0  0  0
 11  9  1  0  0  0  0
 12 14  2  0  0  0  0
 13 12  1  0  0  0  0
 15 11  1  0  0  0  0
 16 17  1  0  0  0  0
 17 18  1  0  0  0  0
 19 16  1  0  0  0  0
 20 19  1  0  0  0  0
M  END
>  <REMARK>
  5 active torsions:
  status: ('A' for Active; 'I' for Inactive)
       I    between atoms: C_2  and  N_4 
    1  A    between atoms: N_4  and  C_5 
    2  A    between atoms: C_5  and  C_7 
       I    between atoms: C_7  and  N_9 
    3  A    between atoms: C_12  and  C_14 
    4  A    between atoms: C_14  and  O_15 
    5  A    between atoms: C_14  and  O_16 

>  <TORSDO>
F 5

$$$$
C:\Users\siddh\.mgltools\PyRx\Ligands\ZINC000062913138_uff_E=293.61.pdbqt
 OpenBabel04182118313D

 19 19  0  0  1  0  0  0  0  0999 V2000
   -1.8980   -2.3510   -0.7590 C   0  0  0  0  0  0  0  0  0  0  0  0
   -2.6140   -1.3760   -0.5620 O   0  0  0  0  0  0  0  0  0  0  0  0
   -2.4560   -3.6030   -0.7810 N   0  0  0  0  0  0  0  0  0  0  0  0
   -1.7310   -4.8170   -1.0840 C   0  0  0  0  0  2  0  0  0  0  0  0
   -2.7120   -5.5330   -1.9950 C   0  0  0  0  0  2  0  0  0  0  0  0
   -4.0770   -5.2430   -1.3300 C   0  0  1  0  0  0  0  0  0  0  0  0
   -4.3320   -6.1850   -0.1330 C   0  0  0  0  0  1  0  0  0  0  0  0
   -3.8940   -3.7770   -0.8500 C   0  0  0  0  0  2  0  0  0  0  0  0
   -0.4330   -2.1310   -1.0820 C   0  0  0  0  0  2  0  0  0  0  0  0
   -0.0980   -0.7080   -1.1200 N   0  0  0  0  0  0  0  0  0  0  0  0
    0.0820   -0.0060    0.0460 C   0  0  0  0  0  0  0  0  0  0  0  0
    0.4280    1.4610    0.0380 C   0  0  0  0  0  1  0  0  0  0  0  0
   -0.0240   -0.5750    1.1250 O   0  0  0  0  0  0  0  0  0  0  0  0
    0.0330   -0.0390   -2.4120 C   0  0  0  0  0  1  0  0  0  0  0  0
   -5.2060   -5.4260   -2.3290 C   0  0  0  0  0  3  0  0  0  0  0  0
   -5.4020   -6.6270   -2.9080 O   0  0  0  0  0  0  0  0  0  0  0  0
   -6.0980   -6.7420   -3.5240 H   0  0  0  0  0  0  0  0  0  0  0  0
   -6.0070   -4.3950   -2.6680 O   0  0  0  0  0  0  0  0  0  0  0  0
   -5.8820   -3.5550   -2.2730 H   0  0  0  0  0  0  0  0  0  0  0  0
  1  2  2  0  0  0  0
  3  1  1  0  0  0  0
  4  3  1  0  0  0  0
  5  6  1  0  0  0  0
  5  4  1  0  0  0  0
  6  8  1  0  0  0  0
  6  7  1  1  0  0  0
  8  3  1  0  0  0  0
  9  1  1  0  0  0  0
 10  9  1  0  0  0  0
 10 11  1  0  0  0  0
 11 13  2  0  0  0  0
 12 11  1  0  0  0  0
 14 10  1  0  0  0  0
 15  6  1  0  0  0  0
 16 15  1  0  0  0  0
 17 16  1  0  0  0  0
 18 15  1  0  0  0  0
 18 19  1  0  0  0  0
M  END
>  <REMARK>
  5 active torsions:
  status: ('A' for Active; 'I' for Inactive)
       I    between atoms: C_2  and  N_4 
    1  A    between atoms: N_4  and  C_6 
    2  A    between atoms: C_6  and  C_7 
       I    between atoms: C_7  and  N_9 
    3  A    between atoms: C_12  and  C_14 
    4  A    between atoms: C_14  and  O_15 
    5  A    between atoms: C_14  and  O_16 

>  <TORSDO>
F 5

$$$$
C:\Users\siddh\.mgltools\PyRx\Ligands\ZINC000062831623_uff_E=444.37.pdbqt
 OpenBabel04182118313D

 20 21  0  0  0  0  0  0  0  0999 V2000
    0.0630   -0.0050   -0.0390 C   0  0  0  0  0  0  0  0  0  0  0  0
   -1.1200   -0.6800    0.2560 C   0  0  0  0  0  3  0  0  0  0  0  0
   -1.1560   -2.0720    0.2440 C   0  0  0  0  0  3  0  0  0  0  0  0
   -0.0050   -2.8300   -0.0510 C   0  0  0  0  0  0  0  0  0  0  0  0
    1.2130   -2.1450   -0.3700 C   0  0  0  0  0  0  0  0  0  0  0  0
    1.2160   -0.7330   -0.3510 C   0  0  0  0  0  3  0  0  0  0  0  0
   -0.1100   -4.2690    0.0140 N   0  0  0  0  0  0  0  0  0  0  0  0
    0.8120   -5.0970    0.4730 N   0  0  0  0  0  0  0  0  0  0  0  0
    0.3390   -6.3330    0.4300 N   0  0  0  0  0  0  0  0  0  0  0  0
   -0.8980   -6.3160   -0.0500 N   0  0  0  0  0  0  0  0  0  0  0  0
   -1.1780   -5.0240   -0.2980 C   0  0  0  0  0  2  0  0  0  0  0  0
   -1.5100   -7.1180   -0.2010 H   0  0  0  0  0  0  0  0  0  0  0  0
    2.4780   -2.8250   -0.7950 C   0  0  0  0  0  3  0  0  0  0  0  0
    3.5950   -2.0970   -0.9950 O   0  0  0  0  0  0  0  0  0  0  0  0
    4.3880   -2.5190   -1.2610 H   0  0  0  0  0  0  0  0  0  0  0  0
    2.5180   -4.1350   -1.0900 O   0  0  0  0  0  0  0  0  0  0  0  0
    1.7570   -4.6670   -0.9620 H   0  0  0  0  0  0  0  0  0  0  0  0
    0.0950    1.4120   -0.0360 N   0  0  0  0  0  0  0  0  0  0  0  0
    0.9620    1.9170   -0.2700 H   0  0  0  0  0  0  0  0  0  0  0  0
   -0.7510    1.9550    0.1920 H   0  0  0  0  0  0  0  0  0  0  0  0
  1 18  1  0  0  0  0
  1  2  1  0  0  0  0
  3  2  2  0  0  0  0
  4  7  1  0  0  0  0
  4  3  1  0  0  0  0
  5  6  1  0  0  0  0
  5  4  2  0  0  0  0
  6  1  2  0  0  0  0
  7  8  1  0  0  0  0
  9  8  2  0  0  0  0
 10  9  1  0  0  0  0
 11 10  1  0  0  0  0
 11  7  1  0  0  0  0
 12 10  1  0  0  0  0
 13  5  1  0  0  0  0
 14 13  1  0  0  0  0
 15 14  1  0  0  0  0
 16 17  1  0  0  0  0
 16 13  1  0  0  0  0
 18 20  1  0  0  0  0
 19 18  1  0  0  0  0
M  END
>  <REMARK>
  5 active torsions:
  status: ('A' for Active; 'I' for Inactive)
    1  A    between atoms: N_1  and  C_2 
    2  A    between atoms: C_5  and  N_6 
    3  A    between atoms: C_12  and  C_13 
    4  A    between atoms: C_13  and  O_14 
    5  A    between atoms: C_13  and  O_15 

>  <TORSDO>
F 5

$$$$
C:\Users\siddh\.mgltools\PyRx\Ligands\ZINC000062716038_uff_E=152.80.pdbqt
 OpenBabel04182118313D

 18 18  0  0  0  0  0  0  0  0999 V2000
    0.6000   -0.5810   -1.0780 C   0  0  0  0  0  0  0  0  0  0  0  0
    1.1810    0.1500   -2.1250 C   0  0  0  0  0  3  0  0  0  0  0  0
    1.7840   -0.4750   -3.1790 N   0  0  0  0  0  0  0  0  0  0  0  0
    1.8390   -1.8530   -3.2410 C   0  0  0  0  0  0  0  0  0  0  0  0
    1.2600   -2.6140   -2.2050 C   0  0  0  0  0  3  0  0  0  0  0  0
    0.6430   -1.9760   -1.1270 C   0  0  0  0  0  0  0  0  0  0  0  0
    0.1490   -2.6380   -0.2320 O   0  0  0  0  0  0  0  0  0  0  0  0
    2.4000    0.3820   -4.2090 C   0  0  0  0  0  2  0  0  0  0  0  0
    3.8330    0.6770   -3.8660 C   0  0  0  0  0  3  0  0  0  0  0  0
    4.3900    0.1730   -2.7460 O   0  0  0  0  0  0  0  0  0  0  0  0
    5.2850    0.3630   -2.5420 H   0  0  0  0  0  0  0  0  0  0  0  0
    4.5630    1.4650   -4.6750 O   0  0  0  0  0  0  0  0  0  0  0  0
    4.1820    1.8190   -5.4540 H   0  0  0  0  0  0  0  0  0  0  0  0
    2.5180   -2.5450   -4.4110 C   0  0  0  0  0  2  0  0  0  0  0  0
    2.4980   -3.9410   -4.2900 O   0  0  0  0  0  0  0  0  0  0  0  0
    2.9360   -4.2920   -5.1090 H   0  0  0  0  0  0  0  0  0  0  0  0
    0.0040    0.0390   -0.0210 O   0  0  0  0  0  0  0  0  0  0  0  0
   -0.0840    1.4110    0.1250 C   0  0  0  0  0  1  0  0  0  0  0  0
  1 17  1  0  0  0  0
  2  1  2  0  0  0  0
  3  2  1  0  0  0  0
  4  3  1  0  0  0  0
  4  5  2  0  0  0  0
  5  6  1  0  0  0  0
  6  1  1  0  0  0  0
  6  7  2  0  0  0  0
  8  9  1  0  0  0  0
  8  3  1  0  0  0  0
  9 10  1  0  0  0  0
 10 11  1  0  0  0  0
 12  9  1  0  0  0  0
 13 12  1  0  0  0  0
 14 15  1  0  0  0  0
 14  4  1  0  0  0  0
 16 15  1  0  0  0  0
 17 18  1  0  0  0  0
M  END
>  <REMARK>
  7 active torsions:
  status: ('A' for Active; 'I' for Inactive)
    1  A    between atoms: O_2  and  C_3 
    2  A    between atoms: N_5  and  C_6 
    3  A    between atoms: C_6  and  C_7 
    4  A    between atoms: C_7  and  O_8 
    5  A    between atoms: C_7  and  O_9 
    6  A    between atoms: C_10  and  C_11 
    7  A    between atoms: C_11  and  O_12 

>  <TORSDO>
F 7

$$$$
C:\Users\siddh\.mgltools\PyRx\Ligands\ZINC000062134048_uff_E=1739.03.pdbqt
 OpenBabel04182118313D

 20 22  0  0  1  0  0  0  0  0999 V2000
   -1.2550    1.9170    0.1690 C   0  0  1  0  0  3  0  0  0  0  0  0
   -2.1680    1.1450    1.0980 C   0  0  0  0  0  2  0  0  0  0  0  0
   -3.2020    2.2160    1.3820 C   0  0  0  0  0  2  0  0  0  0  0  0
   -2.4350    3.4630    1.5660 N   0  0  0  0  0  0  0  0  0  0  0  0
   -1.1170    3.2300    0.9440 C   0  0  0  0  0  2  0  0  0  0  0  0
   -3.1670    4.6760    1.1400 C   0  0  0  0  0  2  0  0  0  0  0  0
   -3.3410    4.7940   -0.3570 C   0  0  2  0  0  3  0  0  0  0  0  0
   -4.4440    4.4860   -1.0690 N   0  0  0  0  0  0  0  0  0  0  0  0
   -4.1520    4.7390   -2.3340 N   0  0  0  0  0  0  0  0  0  0  0  0
   -2.9080    5.1920   -2.4070 N   0  0  0  0  0  0  0  0  0  0  0  0
   -2.3800    5.2320   -1.1920 N   0  0  0  0  0  0  0  0  0  0  0  0
   -1.4380    5.5340   -0.9410 H   0  0  0  0  0  0  0  0  0  0  0  0
   -5.7230    3.9410   -0.5880 C   0  0  0  0  0  3  0  0  0  0  0  0
   -5.8690    2.5230   -1.1350 C   0  0  0  0  0  2  0  0  0  0  0  0
   -6.7940    3.6120   -1.6300 C   0  0  0  0  0  2  0  0  0  0  0  0
    0.0360    1.2090   -0.1420 C   0  0  0  0  0  3  0  0  0  0  0  0
    0.0080    0.0050   -0.7440 O   0  0  0  0  0  0  0  0  0  0  0  0
   -0.0310   -0.4020   -1.5870 H   0  0  0  0  0  0  0  0  0  0  0  0
    1.2210    1.7700    0.1680 O   0  0  0  0  0  0  0  0  0  0  0  0
    1.2480    2.6080    0.5870 H   0  0  0  0  0  0  0  0  0  0  0  0
  1 16  1  1  0  0  0
  1  5  1  0  0  0  0
  1  2  1  0  0  0  0
  2  3  1  0  0  0  0
  3  4  1  0  0  0  0
  5  4  1  0  0  0  0
  6  4  1  0  0  0  0
  7  6  1  6  0  0  0
  8 13  1  0  0  0  0
  8  7  1  0  0  0  0
  9  8  1  0  0  0  0
 10  9  2  0  0  0  0
 10 11  1  0  0  0  0
 11 12  1  0  0  0  0
 11  7  1  0  0  0  0
 14 13  1  0  0  0  0
 15 14  1  0  0  0  0
 15 13  1  0  0  0  0
 16 19  1  0  0  0  0
 17 16  1  0  0  0  0
 18 17  1  0  0  0  0
 19 20  1  0  0  0  0
M  END
>  <REMARK>
  6 active torsions:
  status: ('A' for Active; 'I' for Inactive)
    1  A    between atoms: O_1  and  C_2 
    2  A    between atoms: C_2  and  O_3 
    3  A    between atoms: C_2  and  C_4 
    4  A    between atoms: N_7  and  C_8 
    5  A    between atoms: C_8  and  C_9 
    6  A    between atoms: N_14  and  C_15 

>  <TORSDO>
F 6

$$$$
C:\Users\siddh\.mgltools\PyRx\Ligands\ZINC000062119743_uff_E=620.10.pdbqt
 OpenBabel04182118313D

 15 15  0  0  1  0  0  0  0  0999 V2000
   -2.0020   -2.4480    0.0240 N   0  0  0  0  0  0  0  0  0  0  0  0
   -1.5490   -3.1640   -1.1820 C   0  0  0  0  0  2  0  0  0  0  0  0
   -0.6300   -4.2820   -0.6960 C   0  0  0  0  0  2  0  0  0  0  0  0
   -1.2190   -4.5670    0.6740 C   0  0  2  0  0  3  0  0  0  0  0  0
   -1.4070   -3.1420    1.1700 C   0  0  0  0  0  2  0  0  0  0  0  0
   -1.6680   -0.7020    0.0090 S   0  0  0  0  0  0  0  0  0  0  0  0
   -2.4750   -0.1570    1.1980 O   0  0  0  0  0  0  0  0  0  0  0  0
   -2.5000   -0.1650   -1.1650 O   0  0  0  0  0  0  0  0  0  0  0  0
    0.0370   -0.0580   -0.0060 C   0  0  0  0  0  2  0  0  0  0  0  0
    0.0180    1.4680    0.0040 C   0  0  0  0  0  1  0  0  0  0  0  0
   -0.3670   -5.4180    1.5760 C   0  0  0  0  0  3  0  0  0  0  0  0
    0.7930   -5.9410    1.1390 O   0  0  0  0  0  0  0  0  0  0  0  0
    1.3140   -6.4700    1.7110 H   0  0  0  0  0  0  0  0  0  0  0  0
   -0.7770   -5.6700    2.8370 O   0  0  0  0  0  0  0  0  0  0  0  0
   -1.5830   -5.3090    3.1480 H   0  0  0  0  0  0  0  0  0  0  0  0
  1  5  1  0  0  0  0
  2  3  1  0  0  0  0
  2  1  1  0  0  0  0
  3  4  1  0  0  0  0
  4  5  1  0  0  0  0
  4 11  1  1  0  0  0
  6  1  1  0  0  0  0
  6  7  2  0  0  0  0
  8  6  2  0  0  0  0
  9 10  1  0  0  0  0
  9  6  1  0  0  0  0
 11 14  1  0  0  0  0
 12 11  1  0  0  0  0
 12 13  1  0  0  0  0
 14 15  1  0  0  0  0
M  END
>  <REMARK>
  5 active torsions:
  status: ('A' for Active; 'I' for Inactive)
    1  A    between atoms: C_2  and  S_3 
    2  A    between atoms: S_3  and  N_6 
    3  A    between atoms: C_9  and  C_10 
    4  A    between atoms: C_10  and  O_11 
    5  A    between atoms: C_10  and  O_12 

>  <TORSDO>
F 5

$$$$
C:\Users\siddh\.mgltools\PyRx\Ligands\ZINC000059269027_uff_E=439.56.pdbqt
 OpenBabel04182118313D

 17 17  0  0  1  0  0  0  0  0999 V2000
    0.8540   -0.4580   -1.5390 C   0  0  1  0  0  3  0  0  0  0  0  0
    0.1570   -0.6350   -2.6910 N   0  0  0  0  0  0  0  0  0  0  0  0
   -0.8550   -0.5050   -2.6930 H   0  0  0  0  0  0  0  0  0  0  0  0
    0.7900   -0.9830   -3.8390 C   0  0  0  0  0  2  0  0  0  0  0  0
    2.1750   -1.1480   -3.8470 C   0  0  0  0  0  3  0  0  0  0  0  0
    2.8810   -0.9570   -2.6510 C   0  0  0  0  0  0  0  0  0  0  0  0
    2.2040   -0.6120   -1.5270 N   0  0  0  0  0  0  0  0  0  0  0  0
    2.7170   -0.4660   -0.6580 H   0  0  0  0  0  0  0  0  0  0  0  0
    4.3470   -1.1010   -2.5980 C   0  0  0  0  0  3  0  0  0  0  0  0
    5.0470   -1.4140   -3.7050 O   0  0  0  0  0  0  0  0  0  0  0  0
    5.9790   -1.5040   -3.6600 H   0  0  0  0  0  0  0  0  0  0  0  0
    4.9970   -0.9090   -1.4340 O   0  0  0  0  0  0  0  0  0  0  0  0
    4.5170   -0.6910   -0.6590 H   0  0  0  0  0  0  0  0  0  0  0  0
    0.0280    0.1480   -0.0870 S   0  0  0  0  0  0  0  0  0  0  0  0
   -0.1140    1.9340    0.1570 C   0  0  0  0  0  1  0  0  0  0  0  0
    0.6920   -0.4800    1.1490 O   0  0  0  0  0  0  0  0  0  0  0  0
   -1.3640   -0.4960   -0.0020 O   0  0  0  0  0  0  0  0  0  0  0  0
  1  7  1  0  0  0  0
  1 14  1  6  0  0  0
  2  1  1  0  0  0  0
  3  2  1  0  0  0  0
  4  2  1  0  0  0  0
  5  4  1  0  0  0  0
  5  6  2  0  0  0  0
  6  9  1  0  0  0  0
  6  7  1  0  0  0  0
  7  8  1  0  0  0  0
  9 12  1  0  0  0  0
 10 11  1  0  0  0  0
 10  9  1  0  0  0  0
 12 13  1  0  0  0  0
 14 17  2  0  0  0  0
 14 15  1  0  0  0  0
 14 16  2  0  0  0  0
M  END
>  <REMARK>
  4 active torsions:
  status: ('A' for Active; 'I' for Inactive)
    1  A    between atoms: S_2  and  C_5 
    2  A    between atoms: C_10  and  C_11 
    3  A    between atoms: C_11  and  O_12 
    4  A    between atoms: C_11  and  O_13 

>  <TORSDO>
F 4

$$$$
C:\Users\siddh\.mgltools\PyRx\Ligands\ZINC000057352386_uff_E=360.19.pdbqt
 OpenBabel04182118313D

 20 21  0  0  0  0  0  0  0  0999 V2000
   -0.0190    1.4570    0.0280 C   0  0  0  0  0  1  0  0  0  0  0  0
    0.0030   -0.0380    0.0050 C   0  0  0  0  0  0  0  0  0  0  0  0
    0.0120   -0.8230   -1.1450 C   0  0  0  0  0  3  0  0  0  0  0  0
    0.0360   -2.1210   -0.6900 C   0  0  0  0  0  0  0  0  0  0  0  0
    0.0430   -2.0950    0.6660 C   0  0  0  0  0  0  0  0  0  0  0  0
    0.0220   -0.8240    1.1110 N   0  0  0  0  0  0  0  0  0  0  0  0
    0.0660   -3.2800    1.3910 C   0  0  0  0  0  0  0  0  0  0  0  0
    0.0650   -3.2580    2.6110 O   0  0  0  0  0  0  0  0  0  0  0  0
    0.0830   -4.4840    0.6910 N   0  0  0  0  0  0  0  0  0  0  0  0
    0.0700   -4.4710   -0.7060 C   0  0  0  0  0  0  0  0  0  0  0  0
    0.0720   -5.5190   -1.3330 O   0  0  0  0  0  0  0  0  0  0  0  0
    0.0480   -3.2750   -1.3940 N   0  0  0  0  0  0  0  0  0  0  0  0
    0.0220   -0.5050    2.1060 H   0  0  0  0  0  0  0  0  0  0  0  0
    0.0370   -3.2600   -2.4380 H   0  0  0  0  0  0  0  0  0  0  0  0
    0.0840   -5.7700    1.4160 C   0  0  0  0  0  2  0  0  0  0  0  0
   -1.3210   -6.2450    1.6550 C   0  0  0  0  0  3  0  0  0  0  0  0
   -2.3740   -5.5160    1.2360 O   0  0  0  0  0  0  0  0  0  0  0  0
   -3.2470   -5.8220    1.3910 H   0  0  0  0  0  0  0  0  0  0  0  0
   -1.5320   -7.4130    2.2910 O   0  0  0  0  0  0  0  0  0  0  0  0
   -0.8040   -7.9240    2.5850 H   0  0  0  0  0  0  0  0  0  0  0  0
  2  1  1  0  0  0  0
  2  6  1  0  0  0  0
  3  4  1  0  0  0  0
  3  2  2  0  0  0  0
  4  5  2  0  0  0  0
  5  6  1  0  0  0  0
  5  7  1  0  0  0  0
  6 13  1  0  0  0  0
  7  8  2  0  0  0  0
  9  7  1  0  0  0  0
  9 15  1  0  0  0  0
 10  9  1  0  0  0  0
 11 10  2  0  0  0  0
 12 10  1  0  0  0  0
 12  4  1  0  0  0  0
 14 12  1  0  0  0  0
 15 16  1  0  0  0  0
 16 19  1  0  0  0  0
 17 18  1  0  0  0  0
 17 16  1  0  0  0  0
 19 20  1  0  0  0  0
M  END
>  <REMARK>
  4 active torsions:
  status: ('A' for Active; 'I' for Inactive)
    1  A    between atoms: N_9  and  C_10 
    2  A    between atoms: C_10  and  C_11 
    3  A    between atoms: C_11  and  O_12 
    4  A    between atoms: C_11  and  O_13 

>  <TORSDO>
F 4

$$$$
C:\Users\siddh\.mgltools\PyRx\Ligands\ZINC000057218759_uff_E=284.44.pdbqt
 OpenBabel04182118313D

 20 20  0  0  1  0  0  0  0  0999 V2000
    1.4220   -2.3870   -2.4590 C   0  0  0  0  0  0  0  0  0  0  0  0
    1.6080   -3.7000   -2.8620 C   0  0  1  0  0  3  0  0  0  0  0  0
    2.3300   -3.7050   -4.0020 N   0  0  0  0  0  0  0  0  0  0  0  0
    2.6190   -2.4550   -4.3380 N   0  0  0  0  0  0  0  0  0  0  0  0
    3.1640   -2.1660   -5.1510 H   0  0  0  0  0  0  0  0  0  0  0  0
    2.0700   -1.6300   -3.4220 C   0  0  0  0  0  3  0  0  0  0  0  0
    2.7560   -4.8650   -4.7840 C   0  0  0  0  0  2  0  0  0  0  0  0
    1.6090   -5.4610   -5.5520 C   0  0  0  0  0  3  0  0  0  0  0  0
    0.3830   -4.9030   -5.5040 O   0  0  0  0  0  0  0  0  0  0  0  0
   -0.3240   -5.2830   -5.9870 H   0  0  0  0  0  0  0  0  0  0  0  0
    1.8190   -6.5350   -6.3360 O   0  0  0  0  0  0  0  0  0  0  0  0
    2.6690   -6.9280   -6.3750 H   0  0  0  0  0  0  0  0  0  0  0  0
    1.1540   -4.8710   -2.1980 N   0  0  0  0  0  0  0  0  0  0  0  0
    0.6340   -4.8140   -1.3130 H   0  0  0  0  0  0  0  0  0  0  0  0
    1.3690   -5.8020   -2.5770 H   0  0  0  0  0  0  0  0  0  0  0  0
    0.7120   -1.8570   -1.2740 C   0  0  0  0  0  0  0  0  0  0  0  0
    0.2060   -2.6250   -0.4680 O   0  0  0  0  0  0  0  0  0  0  0  0
    0.6250   -0.5140   -1.0840 O   0  0  0  0  0  0  0  0  0  0  0  0
   -0.0050    0.0460    0.0110 C   0  0  0  0  0  2  0  0  0  0  0  0
    0.0360    1.5630   -0.0760 C   0  0  0  0  0  1  0  0  0  0  0  0
  1 16  1  0  0  0  0
  2  1  1  0  0  0  0
  2 13  1  1  0  0  0
  3  2  1  0  0  0  0
  4  3  1  0  0  0  0
  4  6  1  0  0  0  0
  5  4  1  0  0  0  0
  6  1  2  0  0  0  0
  7  3  1  0  0  0  0
  8  9  1  0  0  0  0
  8  7  1  0  0  0  0
 10  9  1  0  0  0  0
 11  8  1  0  0  0  0
 12 11  1  0  0  0  0
 13 14  1  0  0  0  0
 15 13  1  0  0  0  0
 16 18  1  0  0  0  0
 16 17  2  0  0  0  0
 18 19  1  0  0  0  0
 20 19  1  0  0  0  0
M  END
>  <REMARK>
  8 active torsions:
  status: ('A' for Active; 'I' for Inactive)
    1  A    between atoms: C_2  and  O_3 
    2  A    between atoms: O_3  and  C_4 
    3  A    between atoms: C_4  and  C_6 
    4  A    between atoms: C_7  and  N_8 
    5  A    between atoms: N_9  and  C_10 
    6  A    between atoms: C_10  and  C_11 
    7  A    between atoms: C_11  and  O_12 
    8  A    between atoms: C_11  and  O_13 

>  <TORSDO>
F 8

$$$$
C:\Users\siddh\.mgltools\PyRx\Ligands\ZINC000057218498_uff_E=358.68.pdbqt
 OpenBabel04182118313D

 22 23  0  0  1  0  0  0  0  0999 V2000
    0.0160    1.4120    0.0920 N   0  0  0  0  0  0  0  0  0  0  0  0
    0.0220    0.0010    0.0320 C   0  0  1  0  0  3  0  0  0  0  0  0
   -1.0570   -0.7680    0.2630 N   0  0  0  0  0  0  0  0  0  0  0  0
   -2.0020   -0.4800    0.5170 H   0  0  0  0  0  0  0  0  0  0  0  0
   -0.5760   -2.0180    0.0750 C   0  0  2  0  0  3  0  0  0  0  0  0
   -1.3540   -3.2070    0.2290 N   0  0  2  0  0  0  0  0  0  0  0  0
   -2.5010   -3.1310    1.1290 C   0  0  0  0  0  2  0  0  0  0  0  0
   -3.4760   -4.2920    0.9020 C   0  0  0  0  0  2  0  0  0  0  0  0
   -2.7330   -5.6340    0.9840 C   0  0  2  0  0  3  0  0  0  0  0  0
   -1.6410   -5.6390   -0.1010 C   0  0  0  0  0  2  0  0  0  0  0  0
   -0.6570   -4.4840    0.1220 C   0  0  0  0  0  2  0  0  0  0  0  0
    0.7340   -2.0060   -0.2510 N   0  0  0  0  0  0  0  0  0  0  0  0
    1.3230   -2.8160   -0.4460 H   0  0  0  0  0  0  0  0  0  0  0  0
    1.1020   -0.7370   -0.2690 N   0  0  0  0  0  0  0  0  0  0  0  0
    0.8800    1.9420   -0.0910 H   0  0  0  0  0  0  0  0  0  0  0  0
   -0.8580    1.9170    0.2970 H   0  0  0  0  0  0  0  0  0  0  0  0
    2.0650   -0.3970   -0.4830 H   0  0  0  0  0  0  0  0  0  0  0  0
   -3.6980   -6.7860    0.8220 C   0  0  0  0  0  3  0  0  0  0  0  0
   -3.5170   -7.7130   -0.1390 O   0  0  0  0  0  0  0  0  0  0  0  0
   -4.1240   -8.4220   -0.2270 H   0  0  0  0  0  0  0  0  0  0  0  0
   -4.7430   -6.9040    1.6640 O   0  0  0  0  0  0  0  0  0  0  0  0
   -4.8780   -6.2650    2.3360 H   0  0  0  0  0  0  0  0  0  0  0  0
  1 16  1  0  0  0  0
  2  1  1  6  0  0  0
  2  3  1  0  0  0  0
  3  4  1  0  0  0  0
  5 12  1  1  0  0  0
  5  6  1  0  0  0  0
  5  3  1  0  0  0  0
  6 11  1  1  0  0  0
  6  7  1  0  0  0  0
  8  9  1  0  0  0  0
  8  7  1  0  0  0  0
  9 18  1  6  0  0  0
 10 11  1  0  0  0  0
 10  9  1  0  0  0  0
 13 12  1  0  0  0  0
 14 12  1  0  0  0  0
 14  2  1  0  0  0  0
 15  1  1  0  0  0  0
 17 14  1  0  0  0  0
 18 21  1  0  0  0  0
 19 18  1  0  0  0  0
 20 19  1  0  0  0  0
 21 22  1  0  0  0  0
M  END
>  <REMARK>
  3 active torsions:
  status: ('A' for Active; 'I' for Inactive)
       I    between atoms: N_1  and  C_2 
       I    between atoms: C_5  and  N_6 
    1  A    between atoms: C_9  and  C_10 
    2  A    between atoms: C_10  and  O_11 
    3  A    between atoms: C_10  and  O_12 

>  <TORSDO>
F 3

$$$$
C:\Users\siddh\.mgltools\PyRx\Ligands\ZINC000054768660_uff_E=240.74.pdbqt
 OpenBabel04182118313D

 19 20  0  0  1  0  0  0  0  0999 V2000
    0.0540   -0.1150    0.0940 O   0  0  0  0  0  0  0  0  0  0  0  0
   -0.0110    1.2300    0.0310 C   0  0  0  0  0  3  0  0  0  0  0  0
    0.1770   -1.0370    0.2130 H   0  0  0  0  0  0  0  0  0  0  0  0
    1.1270    1.9470   -0.0380 O   0  0  0  0  0  0  0  0  0  0  0  0
    1.0890    2.8820   -0.0820 H   0  0  0  0  0  0  0  0  0  0  0  0
   -1.3430    1.9280    0.0280 C   0  0  2  0  0  3  0  0  0  0  0  0
   -2.3750    0.9590    0.1610 O   0  0  0  0  0  0  0  0  0  0  0  0
   -3.6370    1.5980    0.2330 C   0  0  0  0  0  2  0  0  0  0  0  0
   -3.9410    2.3150   -1.0820 C   0  0  0  0  0  2  0  0  0  0  0  0
   -2.8600    3.2590   -1.3410 N   0  0  0  0  0  0  0  0  0  0  0  0
   -1.5120    2.7040   -1.2930 C   0  0  0  0  0  2  0  0  0  0  0  0
   -3.0680    4.5970   -1.5950 C   0  0  0  0  0  0  0  0  0  0  0  0
   -2.1110    5.3470   -1.7330 O   0  0  0  0  0  0  0  0  0  0  0  0
   -4.4630    5.1810   -1.7480 C   0  0  2  0  0  3  0  0  0  0  0  0
   -4.5150    6.3090   -2.7990 C   0  0  0  0  0  2  0  0  0  0  0  0
   -5.8400    6.7930   -2.9400 O   0  0  0  0  0  0  0  0  0  0  0  0
   -6.2830    7.3690   -1.7230 C   0  0  0  0  0  2  0  0  0  0  0  0
   -6.3520    6.3160   -0.6070 C   0  0  0  0  0  2  0  0  0  0  0  0
   -4.9640    5.7170   -0.4050 C   0  0  0  0  0  2  0  0  0  0  0  0
  1  3  1  0  0  0  0
  2  1  1  0  0  0  0
  4  2  1  0  0  0  0
  5  4  1  0  0  0  0
  6  2  1  6  0  0  0
  6  7  1  0  0  0  0
  7  8  1  0  0  0  0
  9  8  1  0  0  0  0
 10 11  1  0  0  0  0
 10  9  1  0  0  0  0
 11  6  1  0  0  0  0
 12 10  1  0  0  0  0
 13 12  2  0  0  0  0
 14 12  1  1  0  0  0
 14 19  1  0  0  0  0
 15 14  1  0  0  0  0
 16 15  1  0  0  0  0
 16 17  1  0  0  0  0
 17 18  1  0  0  0  0
 18 19  1  0  0  0  0
M  END
>  <REMARK>
  3 active torsions:
  status: ('A' for Active; 'I' for Inactive)
    1  A    between atoms: C_2  and  O_3 
    2  A    between atoms: C_2  and  C_4 
       I    between atoms: N_6  and  C_7 
    3  A    between atoms: C_7  and  C_9 

>  <TORSDO>
F 3

$$$$
C:\Users\siddh\.mgltools\PyRx\Ligands\ZINC000054768659_uff_E=233.05.pdbqt
 OpenBabel04182118313D

 19 20  0  0  1  0  0  0  0  0999 V2000
    0.0630   -0.1130   -0.0390 O   0  0  0  0  0  0  0  0  0  0  0  0
   -0.0030    1.2330   -0.0100 C   0  0  0  0  0  3  0  0  0  0  0  0
    0.1860   -1.0400   -0.0950 H   0  0  0  0  0  0  0  0  0  0  0  0
    1.1350    1.9530   -0.0170 O   0  0  0  0  0  0  0  0  0  0  0  0
    1.0970    2.8890    0.0030 H   0  0  0  0  0  0  0  0  0  0  0  0
   -1.3350    1.9300    0.0270 C   0  0  1  0  0  3  0  0  0  0  0  0
   -2.3710    0.9570   -0.0210 O   0  0  0  0  0  0  0  0  0  0  0  0
   -3.6380    1.5900   -0.0770 C   0  0  0  0  0  2  0  0  0  0  0  0
   -3.8860    2.3920    1.1990 C   0  0  0  0  0  2  0  0  0  0  0  0
   -2.7930    3.3430    1.3610 N   0  0  0  0  0  0  0  0  0  0  0  0
   -1.4530    2.7700    1.3170 C   0  0  0  0  0  2  0  0  0  0  0  0
   -2.9840    4.6970    1.5470 C   0  0  0  0  0  0  0  0  0  0  0  0
   -2.0200    5.4260    1.7330 O   0  0  0  0  0  0  0  0  0  0  0  0
   -4.3710    5.3240    1.5350 C   0  0  1  0  0  3  0  0  0  0  0  0
   -4.4340    6.6680    2.2920 C   0  0  0  0  0  2  0  0  0  0  0  0
   -5.7540    7.1870    2.2670 O   0  0  0  0  0  0  0  0  0  0  0  0
   -6.1280    7.4970    0.9350 C   0  0  0  0  0  2  0  0  0  0  0  0
   -6.1800    6.2300    0.0700 C   0  0  0  0  0  2  0  0  0  0  0  0
   -4.8080    5.5630    0.0810 C   0  0  0  0  0  2  0  0  0  0  0  0
  1  2  1  0  0  0  0
  3  1  1  0  0  0  0
  4  2  1  0  0  0  0
  4  5  1  0  0  0  0
  6  2  1  1  0  0  0
  6 11  1  0  0  0  0
  7  6  1  0  0  0  0
  8  7  1  0  0  0  0
  8  9  1  0  0  0  0
  9 10  1  0  0  0  0
 10 12  1  0  0  0  0
 11 10  1  0  0  0  0
 12 13  2  0  0  0  0
 14 12  1  6  0  0  0
 14 15  1  0  0  0  0
 16 15  1  0  0  0  0
 17 16  1  0  0  0  0
 18 19  1  0  0  0  0
 18 17  1  0  0  0  0
 19 14  1  0  0  0  0
M  END
>  <REMARK>
  3 active torsions:
  status: ('A' for Active; 'I' for Inactive)
    1  A    between atoms: C_2  and  O_3 
    2  A    between atoms: C_2  and  C_4 
       I    between atoms: N_6  and  C_7 
    3  A    between atoms: C_7  and  C_9 

>  <TORSDO>
F 3

$$$$
C:\Users\siddh\.mgltools\PyRx\Ligands\ZINC000054768658_uff_E=236.36.pdbqt
 OpenBabel04182118313D

 19 20  0  0  1  0  0  0  0  0999 V2000
    0.0580   -0.1170   -0.0350 O   0  0  0  0  0  0  0  0  0  0  0  0
   -0.0060    1.2290   -0.0110 C   0  0  0  0  0  3  0  0  0  0  0  0
    0.1800   -1.0450   -0.0810 H   0  0  0  0  0  0  0  0  0  0  0  0
    1.1320    1.9490   -0.0190 O   0  0  0  0  0  0  0  0  0  0  0  0
    1.0950    2.8850   -0.0020 H   0  0  0  0  0  0  0  0  0  0  0  0
   -1.3370    1.9270    0.0250 C   0  0  1  0  0  3  0  0  0  0  0  0
   -2.3740    0.9550   -0.0170 O   0  0  0  0  0  0  0  0  0  0  0  0
   -3.6400    1.5890   -0.0730 C   0  0  0  0  0  2  0  0  0  0  0  0
   -3.8850    2.3930    1.2020 C   0  0  0  0  0  2  0  0  0  0  0  0
   -2.7910    3.3450    1.3580 N   0  0  0  0  0  0  0  0  0  0  0  0
   -1.4510    2.7720    1.3110 C   0  0  0  0  0  2  0  0  0  0  0  0
   -2.9800    4.6990    1.5380 C   0  0  0  0  0  0  0  0  0  0  0  0
   -2.0130    5.4290    1.7050 O   0  0  0  0  0  0  0  0  0  0  0  0
   -4.3660    5.3280    1.5460 C   0  0  2  0  0  3  0  0  0  0  0  0
   -4.8220    5.6040    0.0970 C   0  0  0  0  0  2  0  0  0  0  0  0
   -6.1310    6.1460    0.0670 O   0  0  0  0  0  0  0  0  0  0  0  0
   -6.1650    7.3950    0.7380 C   0  0  0  0  0  2  0  0  0  0  0  0
   -5.8260    7.2220    2.2240 C   0  0  0  0  0  2  0  0  0  0  0  0
   -4.4160    6.6440    2.3370 C   0  0  0  0  0  2  0  0  0  0  0  0
  1  2  1  0  0  0  0
  3  1  1  0  0  0  0
  4  2  1  0  0  0  0
  4  5  1  0  0  0  0
  6  2  1  1  0  0  0
  6 11  1  0  0  0  0
  7  6  1  0  0  0  0
  8  7  1  0  0  0  0
  8  9  1  0  0  0  0
  9 10  1  0  0  0  0
 10 12  1  0  0  0  0
 11 10  1  0  0  0  0
 12 13  2  0  0  0  0
 14 12  1  6  0  0  0
 14 19  1  0  0  0  0
 15 14  1  0  0  0  0
 16 15  1  0  0  0  0
 16 17  1  0  0  0  0
 17 18  1  0  0  0  0
 18 19  1  0  0  0  0
M  END
>  <REMARK>
  3 active torsions:
  status: ('A' for Active; 'I' for Inactive)
    1  A    between atoms: C_2  and  O_3 
    2  A    between atoms: C_2  and  C_4 
       I    between atoms: N_6  and  C_7 
    3  A    between atoms: C_7  and  C_9 

>  <TORSDO>
F 3

$$$$
C:\Users\siddh\.mgltools\PyRx\Ligands\ZINC000054768639_uff_E=238.43.pdbqt
 OpenBabel04182118313D

 19 19  0  0  1  0  0  0  0  0999 V2000
   -0.5320   -2.9150    1.1160 N   0  0  0  0  0  0  0  0  0  0  0  0
    0.7900   -2.6110    1.3790 C   0  0  0  0  0  0  0  0  0  0  0  0
    1.4420   -1.9960    0.5460 O   0  0  0  0  0  0  0  0  0  0  0  0
   -1.1450   -2.4680   -0.1380 C   0  0  0  0  0  2  0  0  0  0  0  0
   -1.6210   -1.0120   -0.0400 C   0  0  0  0  0  2  0  0  0  0  0  0
   -0.5390   -0.1410    0.2090 O   0  0  0  0  0  0  0  0  0  0  0  0
   -1.0330    1.1670    0.4010 C   0  0  0  0  0  1  0  0  0  0  0  0
   -1.3370   -3.7560    2.0050 C   0  0  0  0  0  2  0  0  0  0  0  0
   -1.4470   -5.1630    1.4920 C   0  0  0  0  0  3  0  0  0  0  0  0
   -0.7910   -5.5470    0.3800 O   0  0  0  0  0  0  0  0  0  0  0  0
   -0.8680   -6.4280    0.0710 H   0  0  0  0  0  0  0  0  0  0  0  0
   -2.1710   -6.0650    2.1820 O   0  0  0  0  0  0  0  0  0  0  0  0
   -2.6290   -5.8040    2.9560 H   0  0  0  0  0  0  0  0  0  0  0  0
    1.5060   -3.1000    2.6380 C   0  0  2  0  0  3  0  0  0  0  0  0
    1.1300   -2.2530    3.8780 C   0  0  0  0  0  2  0  0  0  0  0  0
    1.7370   -2.7820    5.0460 O   0  0  0  0  0  0  0  0  0  0  0  0
    3.1480   -2.6790    4.9560 C   0  0  0  0  0  2  0  0  0  0  0  0
    3.6830   -3.5260    3.7950 C   0  0  0  0  0  2  0  0  0  0  0  0
    3.0410   -3.0430    2.4950 C   0  0  0  0  0  2  0  0  0  0  0  0
  1  2  1  0  0  0  0
  1  8  1  0  0  0  0
  3  2  2  0  0  0  0
  4  5  1  0  0  0  0
  4  1  1  0  0  0  0
  5  6  1  0  0  0  0
  6  7  1  0  0  0  0
  9  8  1  0  0  0  0
  9 12  1  0  0  0  0
 10  9  1  0  0  0  0
 11 10  1  0  0  0  0
 12 13  1  0  0  0  0
 14  2  1  6  0  0  0
 14 15  1  0  0  0  0
 15 16  1  0  0  0  0
 17 16  1  0  0  0  0
 18 17  1  0  0  0  0
 19 14  1  0  0  0  0
 19 18  1  0  0  0  0
M  END
>  <REMARK>
  8 active torsions:
  status: ('A' for Active; 'I' for Inactive)
    1  A    between atoms: O_2  and  C_3 
    2  A    between atoms: C_3  and  C_4 
    3  A    between atoms: C_4  and  N_5 
    4  A    between atoms: N_5  and  C_6 
       I    between atoms: N_5  and  C_10 
    5  A    between atoms: C_6  and  C_7 
    6  A    between atoms: C_7  and  O_8 
    7  A    between atoms: C_7  and  O_9 
    8  A    between atoms: C_10  and  C_12 

>  <TORSDO>
F 8

$$$$
C:\Users\siddh\.mgltools\PyRx\Ligands\ZINC000054768638_uff_E=210.85.pdbqt
 OpenBabel04182118313D

 19 19  0  0  1  0  0  0  0  0999 V2000
   -0.4090   -1.9850    1.3480 N   0  0  0  0  0  0  0  0  0  0  0  0
    0.5660   -2.9660    1.3060 C   0  0  0  0  0  0  0  0  0  0  0  0
    0.9920   -3.3470    0.2250 O   0  0  0  0  0  0  0  0  0  0  0  0
   -0.9070   -1.3890    0.1060 C   0  0  0  0  0  2  0  0  0  0  0  0
   -0.2820   -0.0150   -0.1380 C   0  0  0  0  0  2  0  0  0  0  0  0
    1.1100   -0.1790   -0.3170 O   0  0  0  0  0  0  0  0  0  0  0  0
    1.6910    1.0530   -0.6720 C   0  0  0  0  0  1  0  0  0  0  0  0
   -1.0060   -1.5330    2.6040 C   0  0  0  0  0  2  0  0  0  0  0  0
   -1.9160   -2.5910    3.1800 C   0  0  0  0  0  3  0  0  0  0  0  0
   -2.1420   -3.7420    2.5160 O   0  0  0  0  0  0  0  0  0  0  0  0
   -2.7090   -4.3910    2.8830 H   0  0  0  0  0  0  0  0  0  0  0  0
   -2.5580   -2.3620    4.3400 O   0  0  0  0  0  0  0  0  0  0  0  0
   -2.4080   -1.5650    4.8090 H   0  0  0  0  0  0  0  0  0  0  0  0
    1.1830   -3.5850    2.5630 C   0  0  1  0  0  3  0  0  0  0  0  0
    0.9110   -5.1010    2.6230 C   0  0  0  0  0  2  0  0  0  0  0  0
    1.4790   -5.6670    3.7920 O   0  0  0  0  0  0  0  0  0  0  0  0
    2.8910   -5.5620    3.7480 C   0  0  0  0  0  2  0  0  0  0  0  0
    3.3240   -4.0900    3.7720 C   0  0  0  0  0  2  0  0  0  0  0  0
    2.7110   -3.3700    2.5680 C   0  0  0  0  0  2  0  0  0  0  0  0
  1  8  1  0  0  0  0
  2  1  1  0  0  0  0
  3  2  2  0  0  0  0
  4  1  1  0  0  0  0
  5  4  1  0  0  0  0
  6  5  1  0  0  0  0
  7  6  1  0  0  0  0
  8  9  1  0  0  0  0
  9 12  1  0  0  0  0
 10 11  1  0  0  0  0
 10  9  1  0  0  0  0
 12 13  1  0  0  0  0
 14  2  1  6  0  0  0
 14 19  1  0  0  0  0
 14 15  1  0  0  0  0
 15 16  1  0  0  0  0
 17 18  1  0  0  0  0
 17 16  1  0  0  0  0
 19 18  1  0  0  0  0
M  END
>  <REMARK>
  8 active torsions:
  status: ('A' for Active; 'I' for Inactive)
    1  A    between atoms: O_2  and  C_3 
    2  A    between atoms: C_3  and  C_4 
    3  A    between atoms: C_4  and  N_5 
    4  A    between atoms: N_5  and  C_6 
       I    between atoms: N_5  and  C_10 
    5  A    between atoms: C_6  and  C_7 
    6  A    between atoms: C_7  and  O_8 
    7  A    between atoms: C_7  and  O_9 
    8  A    between atoms: C_10  and  C_12 

>  <TORSDO>
F 8

$$$$
C:\Users\siddh\.mgltools\PyRx\Ligands\ZINC000053496450_uff_E=661.61.pdbqt
 OpenBabel04182118313D

 15 15  0  0  1  0  0  0  0  0999 V2000
    1.3990   -4.3360   -2.2640 S   0  0  0  0  0  0  0  0  0  0  0  0
    1.4120   -2.5050   -2.3900 C   0  0  0  0  0  2  0  0  0  0  0  0
    0.7200   -1.9070   -1.1840 C   0  0  0  0  0  0  0  0  0  0  0  0
    0.6040   -0.5640   -1.0580 N   0  0  0  0  0  0  0  0  0  0  0  0
    0.9740    0.0310   -1.7500 H   0  0  0  0  0  0  0  0  0  0  0  0
    0.2570   -2.6340   -0.3170 O   0  0  0  0  0  0  0  0  0  0  0  0
   -0.0180   -0.0470    0.0190 O   0  0  0  0  0  0  0  0  0  0  0  0
    0.0470    1.3470   -0.1080 C   0  0  0  0  0  1  0  0  0  0  0  0
    2.1880   -4.7880   -3.8510 C   0  0  1  0  0  3  0  0  0  0  0  0
    2.4090   -6.3130   -3.8540 C   0  0  0  0  0  2  0  0  0  0  0  0
    2.6570   -6.6280   -5.5950 S   0  0  0  0  0  0  0  0  0  0  0  0
    2.0050   -5.1220   -6.3130 C   0  0  0  0  0  2  0  0  0  0  0  0
    1.9360   -7.8950   -6.0810 O   0  0  0  0  0  0  0  0  0  0  0  0
    4.1380   -6.8490   -5.9370 O   0  0  0  0  0  0  0  0  0  0  0  0
    1.3150   -4.4810   -5.0950 C   0  0  0  0  0  2  0  0  0  0  0  0
  2  1  1  0  0  0  0
  2  3  1  0  0  0  0
  3  4  1  0  0  0  0
  3  6  2  0  0  0  0
  4  7  1  0  0  0  0
  5  4  1  0  0  0  0
  8  7  1  0  0  0  0
  9  1  1  1  0  0  0
 10  9  1  0  0  0  0
 11 10  1  0  0  0  0
 12 11  1  0  0  0  0
 12 15  1  0  0  0  0
 13 11  2  0  0  0  0
 14 11  2  0  0  0  0
 15  9  1  0  0  0  0
M  END
>  <REMARK>
  4 active torsions:
  status: ('A' for Active; 'I' for Inactive)
    1  A    between atoms: O_2  and  N_3 
       I    between atoms: N_3  and  C_4 
    2  A    between atoms: C_4  and  C_6 
    3  A    between atoms: C_6  and  S_7 
    4  A    between atoms: S_7  and  C_8 

>  <TORSDO>
F 4

$$$$
C:\Users\siddh\.mgltools\PyRx\Ligands\ZINC000050959659_uff_E=219.97.pdbqt
 OpenBabel04182118313D

 19 20  0  0  1  0  0  0  0  0999 V2000
    0.0860   -0.1040    0.1140 O   0  0  0  0  0  0  0  0  0  0  0  0
    0.0080    1.2400    0.0310 C   0  0  0  0  0  3  0  0  0  0  0  0
    0.2330   -1.0160    0.2700 H   0  0  0  0  0  0  0  0  0  0  0  0
    1.1390    1.9670   -0.0480 O   0  0  0  0  0  0  0  0  0  0  0  0
    1.0920    2.9010   -0.1060 H   0  0  0  0  0  0  0  0  0  0  0  0
   -1.3310    1.9260    0.0300 C   0  0  2  0  0  3  0  0  0  0  0  0
   -2.3520    0.9490    0.1770 O   0  0  0  0  0  0  0  0  0  0  0  0
   -3.6180    1.5780    0.2710 C   0  0  0  0  0  2  0  0  0  0  0  0
   -3.9450    2.3030   -1.0330 C   0  0  0  0  0  2  0  0  0  0  0  0
   -2.8750    3.2520   -1.3130 N   0  0  0  0  0  0  0  0  0  0  0  0
   -1.5240    2.6990   -1.2910 C   0  0  0  0  0  2  0  0  0  0  0  0
   -3.0970    4.5910   -1.5660 C   0  0  0  0  0  0  0  0  0  0  0  0
   -2.1460    5.3430   -1.7280 O   0  0  0  0  0  0  0  0  0  0  0  0
   -4.5000    5.1790   -1.6810 C   0  0  1  0  0  3  0  0  0  0  0  0
   -4.4100    6.5910   -1.8500 O   0  0  0  0  0  0  0  0  0  0  0  0
   -5.7020    7.1800   -1.8410 C   0  0  0  0  0  2  0  0  0  0  0  0
   -6.5400    6.6840   -3.0270 C   0  0  0  0  0  2  0  0  0  0  0  0
   -6.6520    5.1650   -2.9540 C   0  0  0  0  0  2  0  0  0  0  0  0
   -5.2460    4.5760   -2.9020 C   0  0  0  0  0  2  0  0  0  0  0  0
  1  3  1  0  0  0  0
  2  1  1  0  0  0  0
  4  2  1  0  0  0  0
  5  4  1  0  0  0  0
  6  2  1  6  0  0  0
  6  7  1  0  0  0  0
  7  8  1  0  0  0  0
  9  8  1  0  0  0  0
 10 11  1  0  0  0  0
 10  9  1  0  0  0  0
 11  6  1  0  0  0  0
 12 10  1  0  0  0  0
 13 12  2  0  0  0  0
 14 12  1  6  0  0  0
 15 16  1  0  0  0  0
 15 14  1  0  0  0  0
 17 18  1  0  0  0  0
 17 16  1  0  0  0  0
 18 19  1  0  0  0  0
 19 14  1  0  0  0  0
M  END
>  <REMARK>
  3 active torsions:
  status: ('A' for Active; 'I' for Inactive)
    1  A    between atoms: C_2  and  O_3 
    2  A    between atoms: C_2  and  C_4 
       I    between atoms: N_6  and  C_7 
    3  A    between atoms: C_7  and  C_9 

>  <TORSDO>
F 3

$$$$
C:\Users\siddh\.mgltools\PyRx\Ligands\ZINC000050215286_uff_E=399.21.pdbqt
 OpenBabel04182118313D

 20 21  0  0  0  0  0  0  0  0999 V2000
    0.0790    1.4590    0.0220 C   0  0  0  0  0  1  0  0  0  0  0  0
    0.0530   -0.0430   -0.0380 C   0  0  0  0  0  0  0  0  0  0  0  0
    0.0590   -0.8330   -1.1710 C   0  0  0  0  0  0  0  0  0  0  0  0
   -0.0170   -2.1190   -0.7720 N   0  0  0  0  0  0  0  0  0  0  0  0
   -0.0320   -2.9400   -1.3780 H   0  0  0  0  0  0  0  0  0  0  0  0
   -0.0680   -2.1210    0.5520 N   0  0  0  0  0  2  0  0  0  0  0  0
   -0.0180   -0.8810    1.0190 N   0  0  0  0  0  0  0  0  0  0  0  0
   -0.0510   -0.5540    2.4430 C   0  0  0  0  0  2  0  0  0  0  0  0
    1.3310   -0.0660    2.9210 C   0  0  0  0  0  2  0  0  0  0  0  0
    1.3600    0.2330    4.3720 N   0  0  0  0  0  0  0  0  0  0  0  0
    2.7460    0.5380    4.7910 C   0  0  0  0  0  2  0  0  0  0  0  0
    2.7770    0.9030    6.2820 C   0  0  0  0  0  2  0  0  0  0  0  0
    1.9500    2.0210    6.5370 O   0  0  0  0  0  0  0  0  0  0  0  0
    0.6140    1.6950    6.2100 C   0  0  0  0  0  2  0  0  0  0  0  0
    0.4870    1.3750    4.7170 C   0  0  0  0  0  2  0  0  0  0  0  0
    0.1000   -0.4170   -2.5840 C   0  0  0  0  0  3  0  0  0  0  0  0
    0.1480    0.8870   -2.9160 O   0  0  0  0  0  0  0  0  0  0  0  0
    0.1740    1.1400   -3.8180 H   0  0  0  0  0  0  0  0  0  0  0  0
    0.0780   -1.3490   -3.5560 O   0  0  0  0  0  0  0  0  0  0  0  0
    0.0450   -2.2580   -3.3330 H   0  0  0  0  0  0  0  0  0  0  0  0
  2  1  1  0  0  0  0
  2  7  1  0  0  0  0
  3  4  1  0  0  0  0
  3  2  2  0  0  0  0
  4  6  1  0  0  0  0
  5  4  1  0  0  0  0
  6  7  1  0  0  0  0
  7  8  1  0  0  0  0
  8  9  1  0  0  0  0
  9 10  1  0  0  0  0
 10 15  1  0  0  0  0
 10 11  1  0  0  0  0
 11 12  1  0  0  0  0
 12 13  1  0  0  0  0
 14 13  1  0  0  0  0
 15 14  1  0  0  0  0
 16  3  1  0  0  0  0
 17 16  1  0  0  0  0
 18 17  1  0  0  0  0
 19 20  1  0  0  0  0
 19 16  1  0  0  0  0
M  END
>  <REMARK>
  6 active torsions:
  status: ('A' for Active; 'I' for Inactive)
    1  A    between atoms: C_3  and  C_4 
    2  A    between atoms: C_4  and  O_5 
    3  A    between atoms: C_4  and  O_6 
    4  A    between atoms: N_10  and  C_11 
    5  A    between atoms: C_11  and  C_12 
    6  A    between atoms: C_12  and  N_13 

>  <TORSDO>
F 6

$$$$
C:\Users\siddh\.mgltools\PyRx\Ligands\ZINC000050213593_uff_E=529.33.pdbqt
 OpenBabel04182118313D

 20 21  0  0  1  0  0  0  0  0999 V2000
   -1.6080   -3.7240   -1.4000 N   0  0  0  0  0  0  0  0  0  0  0  0
   -1.3030   -4.9100   -1.9470 C   0  0  0  0  0  3  0  0  0  0  0  0
   -1.7330   -4.8620   -3.2500 C   0  0  0  0  0  0  0  0  0  0  0  0
   -2.2890   -3.6510   -3.4630 N   0  0  0  0  0  0  0  0  0  0  0  0
   -2.6970   -3.3150   -4.3350 H   0  0  0  0  0  0  0  0  0  0  0  0
   -2.2050   -2.9800   -2.3230 N   0  0  0  0  0  2  0  0  0  0  0  0
   -1.3490   -3.3040   -0.0280 C   0  0  0  0  0  2  0  0  0  0  0  0
   -0.5460   -2.0420   -0.0110 C   0  0  2  0  0  3  0  0  0  0  0  0
   -1.0790   -0.8020    0.0040 N   0  0  0  0  0  0  0  0  0  0  0  0
    0.0130   -0.0140    0.0020 C   0  0  2  0  0  3  0  0  0  0  0  0
   -2.0620   -0.5310    0.0140 H   0  0  0  0  0  0  0  0  0  0  0  0
   -0.0190    1.4790    0.0110 C   0  0  0  0  0  1  0  0  0  0  0  0
    1.1080   -0.7360   -0.0120 O   0  0  0  0  0  0  0  0  0  0  0  0
    0.7990   -1.9980   -0.0230 N   0  0  0  0  0  0  0  0  0  0  0  0
    1.4420   -2.7900   -0.0370 H   0  0  0  0  0  0  0  0  0  0  0  0
   -1.6250   -5.9300   -4.2480 C   0  0  0  0  0  3  0  0  0  0  0  0
   -1.0640   -7.1080   -3.9150 O   0  0  0  0  0  0  0  0  0  0  0  0
   -0.9950   -7.7910   -4.5540 H   0  0  0  0  0  0  0  0  0  0  0  0
   -2.0850   -5.7380   -5.4980 O   0  0  0  0  0  0  0  0  0  0  0  0
   -2.4760   -4.9190   -5.7340 H   0  0  0  0  0  0  0  0  0  0  0  0
  1  7  1  0  0  0  0
  2  1  1  0  0  0  0
  3  2  2  0  0  0  0
  4  3  1  0  0  0  0
  4  6  1  0  0  0  0
  5  4  1  0  0  0  0
  6  1  1  0  0  0  0
  8  7  1  6  0  0  0
  8  9  1  0  0  0  0
  9 11  1  0  0  0  0
 10  9  1  0  0  0  0
 10 12  1  6  0  0  0
 13 10  1  0  0  0  0
 14 13  1  0  0  0  0
 14  8  1  0  0  0  0
 15 14  1  0  0  0  0
 16 17  1  0  0  0  0
 16  3  1  0  0  0  0
 18 17  1  0  0  0  0
 19 16  1  0  0  0  0
 20 19  1  0  0  0  0
M  END
>  <REMARK>
  5 active torsions:
  status: ('A' for Active; 'I' for Inactive)
    1  A    between atoms: C_5  and  C_6 
    2  A    between atoms: C_6  and  N_7 
    3  A    between atoms: C_9  and  C_10 
    4  A    between atoms: C_10  and  O_11 
    5  A    between atoms: C_10  and  O_12 

>  <TORSDO>
F 5

$$$$
C:\Users\siddh\.mgltools\PyRx\Ligands\ZINC000050213590_uff_E=442.82.pdbqt
 OpenBabel04182118313D

 19 20  0  0  1  0  0  0  0  0999 V2000
   -0.0150   -0.1340    0.0070 O   0  0  0  0  0  0  0  0  0  0  0  0
   -0.0220    1.2120    0.0060 C   0  0  0  0  0  3  0  0  0  0  0  0
   -0.0000   -1.0710    0.0080 H   0  0  0  0  0  0  0  0  0  0  0  0
    1.1430    1.8880   -0.0020 O   0  0  0  0  0  0  0  0  0  0  0  0
    1.1410    2.8250   -0.0020 H   0  0  0  0  0  0  0  0  0  0  0  0
   -1.2920    1.9420    0.0150 C   0  0  0  0  0  0  0  0  0  0  0  0
   -2.5150    1.3730    0.0400 N   0  0  0  0  0  0  0  0  0  0  0  0
   -3.4000    2.3590    0.0470 N   0  0  0  0  0  2  0  0  0  0  0  0
   -2.7200    0.3730    0.0510 H   0  0  0  0  0  0  0  0  0  0  0  0
   -2.7770    3.5300    0.0210 N   0  0  0  0  0  0  0  0  0  0  0  0
   -1.4560    3.3050    0.0040 C   0  0  0  0  0  3  0  0  0  0  0  0
   -3.4410    4.8250    0.0280 C   0  0  0  0  0  2  0  0  0  0  0  0
   -4.4030    4.9460   -1.1570 C   0  0  2  0  0  3  0  0  0  0  0  0
   -3.7080    4.9630   -2.3590 O   0  0  0  0  0  0  0  0  0  0  0  0
   -3.9590    6.0980   -3.0130 C   0  0  0  0  0  0  0  0  0  0  0  0
   -4.7900    6.9040   -2.3640 N   0  0  0  0  0  0  0  0  0  0  0  0
   -3.4750    6.3700   -4.1000 O   0  0  0  0  0  0  0  0  0  0  0  0
   -5.1790    6.3020   -1.1230 C   0  0  0  0  0  2  0  0  0  0  0  0
   -5.1070    7.8240   -2.7020 H   0  0  0  0  0  0  0  0  0  0  0  0
  1  3  1  0  0  0  0
  2  1  1  0  0  0  0
  2  6  1  0  0  0  0
  4  5  1  0  0  0  0
  4  2  1  0  0  0  0
  6  7  1  0  0  0  0
  7  8  1  0  0  0  0
  7  9  1  0  0  0  0
 10 12  1  0  0  0  0
 10  8  1  0  0  0  0
 11  6  2  0  0  0  0
 11 10  1  0  0  0  0
 13 18  1  0  0  0  0
 13 12  1  1  0  0  0
 14 13  1  0  0  0  0
 15 16  1  0  0  0  0
 15 14  1  0  0  0  0
 16 18  1  0  0  0  0
 17 15  2  0  0  0  0
 19 16  1  0  0  0  0
M  END
>  <REMARK>
  4 active torsions:
  status: ('A' for Active; 'I' for Inactive)
    1  A    between atoms: C_2  and  O_3 
    2  A    between atoms: C_2  and  C_4 
    3  A    between atoms: N_6  and  C_7 
    4  A    between atoms: C_7  and  C_8 

>  <TORSDO>
F 4

$$$$
C:\Users\siddh\.mgltools\PyRx\Ligands\ZINC000049581963_uff_E=109.86.pdbqt
 OpenBabel04182118313D

 23 23  0  0  1  0  0  0  0  0999 V2000
   -2.1410   -0.5650    1.3330 C   0  0  0  0  0  0  0  0  0  0  0  0
   -2.1150   -1.3620    0.1830 C   0  0  0  0  0  3  0  0  0  0  0  0
   -2.0890   -2.7510    0.3080 C   0  0  0  0  0  2  0  0  0  0  0  0
   -2.0980   -3.3240    1.5440 N   0  0  0  0  0  0  0  0  0  0  0  0
   -2.0790   -4.3410    1.6180 H   0  0  0  0  0  0  0  0  0  0  0  0
   -2.1310   -2.5790    2.6790 C   0  0  0  0  0  0  0  0  0  0  0  0
   -2.1520   -1.1770    2.5940 C   0  0  0  0  0  3  0  0  0  0  0  0
   -2.1300    0.9380    1.2260 C   0  0  0  0  0  2  0  0  0  0  0  0
   -0.6870    1.4910    1.1800 C   0  0  1  0  0  3  0  0  0  0  0  0
    0.0280    1.0170   -0.0140 N   0  0  0  0  0  4  0  0  0  0  0  0
    0.1250   -0.0230    0.0020 H   0  0  0  0  0  0  0  0  0  0  0  0
    0.9970    1.4080   -0.0250 H   0  0  0  0  0  0  0  0  0  0  0  0
   -0.4750    1.3060   -0.8850 H   0  0  0  0  0  0  0  0  0  0  0  0
   -0.7230    3.0010    1.2200 C   0  0  0  0  0  3  0  0  0  0  0  0
   -0.2410    3.7310    0.1950 O   0  0  0  0  0  0  0  0  0  0  0  0
   -0.2690    4.6670    0.2320 H   0  0  0  0  0  0  0  0  0  0  0  0
   -1.2320    3.6300    2.2980 O   0  0  0  0  0  0  0  0  0  0  0  0
   -1.5690    3.1310    3.0150 H   0  0  0  0  0  0  0  0  0  0  0  0
   -2.1390   -3.2510    3.9930 C   0  0  0  0  0  3  0  0  0  0  0  0
   -2.1140   -4.5970    4.0570 O   0  0  0  0  0  0  0  0  0  0  0  0
   -2.1190   -5.0270    4.8890 H   0  0  0  0  0  0  0  0  0  0  0  0
   -2.1720   -2.5340    5.1320 O   0  0  0  0  0  0  0  0  0  0  0  0
   -2.1900   -1.5980    5.0970 H   0  0  0  0  0  0  0  0  0  0  0  0
  1  7  1  0  0  0  0
  2  3  1  0  0  0  0
  2  1  2  0  0  0  0
  3  4  1  0  0  0  0
  4  5  1  0  0  0  0
  4  6  1  0  0  0  0
  6 19  1  0  0  0  0
  7  6  2  0  0  0  0
  8  1  1  0  0  0  0
  9 14  1  0  0  0  0
  9  8  1  6  0  0  0
 10 11  1  0  0  0  0
 10  9  1  0  0  0  0
 12 10  1  0  0  0  0
 13 10  1  0  0  0  0
 14 17  1  0  0  0  0
 15 16  1  0  0  0  0
 15 14  1  0  0  0  0
 17 18  1  0  0  0  0
 19 20  1  0  0  0  0
 19 22  1  0  0  0  0
 20 21  1  0  0  0  0
 23 22  1  0  0  0  0
M  END
>  <REMARK>
  9 active torsions:
  status: ('A' for Active; 'I' for Inactive)
    1  A    between atoms: N_1  and  C_5 
    2  A    between atoms: C_5  and  C_6 
    3  A    between atoms: C_5  and  C_17 
    4  A    between atoms: C_6  and  C_7 
    5  A    between atoms: C_12  and  C_13 
    6  A    between atoms: C_13  and  O_14 
    7  A    between atoms: C_13  and  O_15 
    8  A    between atoms: C_17  and  O_18 
    9  A    between atoms: C_17  and  O_19 

>  <TORSDO>
F 9

$$$$
C:\Users\siddh\.mgltools\PyRx\Ligands\ZINC000047843705_uff_E=667.90.pdbqt
 OpenBabel04182118313D

 20 20  0  0  1  0  0  0  0  0999 V2000
    0.0010   -3.3790   -1.7830 S   0  0  0  0  0  0  0  0  0  0  0  0
    1.4190   -3.8870   -2.0850 O   0  0  0  0  0  0  0  0  0  0  0  0
   -0.6390   -4.6200   -1.1420 O   0  0  0  0  0  0  0  0  0  0  0  0
   -0.0120   -1.9710   -0.6780 C   0  0  0  0  0  0  0  0  0  0  0  0
   -0.0100   -0.6880   -1.0860 N   0  0  0  0  0  0  0  0  0  0  0  0
    0.0180    0.0350    0.0540 C   0  0  1  0  0  3  0  0  0  0  0  0
   -0.0260   -0.3400   -2.0440 H   0  0  0  0  0  0  0  0  0  0  0  0
    0.0280    1.5290    0.0760 C   0  0  0  0  0  1  0  0  0  0  0  0
    0.0300   -0.7540    1.1490 N   0  0  0  0  0  0  0  0  0  0  0  0
    0.0070   -2.0180    0.6980 C   0  0  0  0  0  3  0  0  0  0  0  0
    0.0600   -0.3310    2.5470 C   0  0  0  0  0  1  0  0  0  0  0  0
   -0.7950   -3.2400   -3.3620 N   0  0  0  0  0  0  0  0  0  0  0  0
   -1.8180   -3.0990   -3.1970 H   0  0  0  0  0  0  0  0  0  0  0  0
   -0.2540   -2.0980   -4.0990 C   0  0  0  0  0  2  0  0  0  0  0  0
   -0.8900   -2.0180   -5.4890 C   0  0  0  0  0  2  0  0  0  0  0  0
   -0.3690   -0.8650   -6.3030 C   0  0  0  0  0  3  0  0  0  0  0  0
    0.5630   -0.0270   -5.8070 O   0  0  0  0  0  0  0  0  0  0  0  0
    0.8770    0.6870   -6.3270 H   0  0  0  0  0  0  0  0  0  0  0  0
   -0.8420   -0.6660   -7.5480 O   0  0  0  0  0  0  0  0  0  0  0  0
   -1.4900   -1.2440   -7.9010 H   0  0  0  0  0  0  0  0  0  0  0  0
  1  3  2  0  0  0  0
  1  4  1  0  0  0  0
  2  1  2  0  0  0  0
  4 10  2  0  0  0  0
  5  4  1  0  0  0  0
  5  6  1  0  0  0  0
  6  8  1  1  0  0  0
  6  9  1  0  0  0  0
  7  5  1  0  0  0  0
  9 11  1  0  0  0  0
 10  9  1  0  0  0  0
 12 13  1  0  0  0  0
 12  1  1  0  0  0  0
 14 12  1  0  0  0  0
 15 14  1  0  0  0  0
 16 17  1  0  0  0  0
 16 15  1  0  0  0  0
 18 17  1  0  0  0  0
 19 16  1  0  0  0  0
 20 19  1  0  0  0  0
M  END
>  <REMARK>
  7 active torsions:
  status: ('A' for Active; 'I' for Inactive)
    1  A    between atoms: C_5  and  S_6 
    2  A    between atoms: S_6  and  N_9 
    3  A    between atoms: N_9  and  C_10 
    4  A    between atoms: C_10  and  C_11 
    5  A    between atoms: C_11  and  C_12 
    6  A    between atoms: C_12  and  O_13 
    7  A    between atoms: C_12  and  O_14 

>  <TORSDO>
F 7

$$$$
C:\Users\siddh\.mgltools\PyRx\Ligands\ZINC000044907743_uff_E=1440.94.pdbqt
 OpenBabel04182118313D

 18 19  0  0  0  0  0  0  0  0999 V2000
   -2.3060   -0.6890   -3.5970 N   0  0  0  0  0  0  0  0  0  0  0  0
   -2.2310   -1.8910   -4.1830 N   0  0  0  0  0  0  0  0  0  0  0  0
   -3.0530   -2.2380   -5.2210 C   0  0  0  0  0  0  0  0  0  0  0  0
   -2.9660   -3.3450   -5.7220 O   0  0  0  0  0  0  0  0  0  0  0  0
   -3.9850   -1.3210   -5.6990 C   0  0  0  0  0  3  0  0  0  0  0  0
   -4.0680   -0.0660   -5.1050 C   0  0  0  0  0  3  0  0  0  0  0  0
   -3.2210    0.2460   -4.0410 C   0  0  0  0  0  0  0  0  0  0  0  0
   -3.2890    1.3480   -3.5180 O   0  0  0  0  0  0  0  0  0  0  0  0
   -1.5680   -2.5420   -3.8590 H   0  0  0  0  0  0  0  0  0  0  0  0
   -1.3860   -0.3910   -2.4940 C   0  0  0  0  0  2  0  0  0  0  0  0
   -2.0150   -0.6740   -1.1370 C   0  0  0  0  0  0  0  0  0  0  0  0
   -1.3330   -0.4620    0.0450 N   0  0  0  0  0  0  0  0  0  0  0  0
   -3.1560   -1.1190   -1.1090 O   0  0  0  0  0  0  0  0  0  0  0  0
    0.0530    0.0320    0.0210 C   0  0  0  0  0  2  0  0  0  0  0  0
    0.1240    1.5600    0.0100 C   0  0  0  0  0  1  0  0  0  0  0  0
   -1.9670   -0.8890    1.3080 C   0  0  0  0  0  3  0  0  0  0  0  0
   -2.4480    0.3040    2.1340 C   0  0  0  0  0  2  0  0  0  0  0  0
   -1.2990   -0.5570    2.6410 C   0  0  0  0  0  2  0  0  0  0  0  0
  1 10  1  0  0  0  0
  2  9  1  0  0  0  0
  2  1  1  0  0  0  0
  3  2  1  0  0  0  0
  4  3  2  0  0  0  0
  5  3  1  0  0  0  0
  5  6  2  0  0  0  0
  6  7  1  0  0  0  0
  7  1  1  0  0  0  0
  7  8  2  0  0  0  0
 10 11  1  0  0  0  0
 11 13  2  0  0  0  0
 11 12  1  0  0  0  0
 12 16  1  0  0  0  0
 14 12  1  0  0  0  0
 15 14  1  0  0  0  0
 16 17  1  0  0  0  0
 16 18  1  0  0  0  0
 17 18  1  0  0  0  0
M  END
>  <REMARK>
  4 active torsions:
  status: ('A' for Active; 'I' for Inactive)
    1  A    between atoms: C_2  and  N_3 
       I    between atoms: N_3  and  C_4 
    2  A    between atoms: N_3  and  C_15 
    3  A    between atoms: C_4  and  C_6 
    4  A    between atoms: C_6  and  N_7 

>  <TORSDO>
F 4

$$$$
C:\Users\siddh\.mgltools\PyRx\Ligands\ZINC000044610030_uff_E=513.50.pdbqt
 OpenBabel04182118313D

 23 25  0  0  1  0  0  0  0  0999 V2000
    0.1870   -0.0700    0.0060 O   0  0  0  0  0  0  0  0  0  0  0  0
    0.1130    1.2760    0.0210 C   0  0  0  0  0  3  0  0  0  0  0  0
    0.3260   -0.9960   -0.0200 H   0  0  0  0  0  0  0  0  0  0  0  0
    1.2460    1.9970   -0.0780 O   0  0  0  0  0  0  0  0  0  0  0  0
    1.2070    2.9330   -0.0700 H   0  0  0  0  0  0  0  0  0  0  0  0
   -1.2310    1.9630    0.0060 C   0  0  2  0  0  3  0  0  0  0  0  0
   -1.1640    3.3510    0.6720 C   0  0  0  0  0  2  0  0  0  0  0  0
   -2.5420    4.0200    0.6120 C   0  0  0  0  0  2  0  0  0  0  0  0
   -3.5440    3.1590    1.2570 N   0  0  0  0  0  0  0  0  0  0  0  0
   -3.6470    1.8130    0.6840 C   0  0  0  0  0  2  0  0  0  0  0  0
   -2.2870    1.1180    0.7340 C   0  0  0  0  0  2  0  0  0  0  0  0
   -4.3700    3.6270    2.3740 C   0  0  0  0  0  0  0  0  0  0  0  0
   -5.4450    2.9140    2.8650 N   0  0  0  0  0  0  0  0  0  0  0  0
   -6.2020    3.3470    3.8770 C   0  0  0  0  0  0  0  0  0  0  0  0
   -5.9620    1.7580    2.4940 N   0  0  0  0  0  0  0  0  0  0  0  0
   -5.9580    4.5510    4.5000 C   0  0  0  0  0  3  0  0  0  0  0  0
   -7.1760    2.4650    4.1460 N   0  0  0  0  0  0  0  0  0  0  0  0
   -4.9140    5.2950    4.0540 N   0  0  0  0  0  0  0  0  0  0  0  0
   -4.1180    4.8780    3.0220 C   0  0  0  0  0  3  0  0  0  0  0  0
   -4.7160    6.1900    4.5010 H   0  0  0  0  0  0  0  0  0  0  0  0
   -7.0030    1.4820    3.2710 N   0  0  0  0  0  2  0  0  0  0  0  0
   -7.8930    2.5340    4.8680 H   0  0  0  0  0  0  0  0  0  0  0  0
   -5.6170    1.1720    1.7340 H   0  0  0  0  0  0  0  0  0  0  0  0
  1  2  1  0  0  0  0
  3  1  1  0  0  0  0
  4  5  1  0  0  0  0
  4  2  1  0  0  0  0
  6  2  1  1  0  0  0
  6  7  1  0  0  0  0
  6 11  1  0  0  0  0
  8  7  1  0  0  0  0
  8  9  1  0  0  0  0
  9 12  1  0  0  0  0
 10 11  1  0  0  0  0
 10  9  1  0  0  0  0
 12 13  1  0  0  0  0
 12 19  2  0  0  0  0
 13 14  1  0  0  0  0
 14 17  1  0  0  0  0
 14 16  2  0  0  0  0
 15 13  1  0  0  0  0
 15 21  1  0  0  0  0
 17 22  1  0  0  0  0
 18 16  1  0  0  0  0
 18 20  1  0  0  0  0
 19 18  1  0  0  0  0
 21 17  1  0  0  0  0
 23 15  1  0  0  0  0
M  END
>  <REMARK>
  3 active torsions:
  status: ('A' for Active; 'I' for Inactive)
    1  A    between atoms: C_2  and  O_3 
    2  A    between atoms: C_2  and  C_4 
    3  A    between atoms: N_7  and  C_8 

>  <TORSDO>
F 3

$$$$
C:\Users\siddh\.mgltools\PyRx\Ligands\ZINC000044122959_uff_E=148.62.pdbqt
 OpenBabel04182118313D

 17 16  0  0  1  0  0  0  0  0999 V2000
    1.0280   -2.2980    2.6160 C   0  0  2  0  0  3  0  0  0  0  0  0
    0.7080   -1.7880    1.1900 C   0  0  0  0  0  3  0  0  0  0  0  0
    0.8040   -0.3720    1.1800 O   0  0  0  0  0  0  0  0  0  0  0  0
    0.1480    0.1710    0.0530 C   0  0  0  0  0  2  0  0  0  0  0  0
    0.0260    1.6750    0.2190 C   0  0  0  0  0  1  0  0  0  0  0  0
    1.6460   -2.3490    0.2820 O   0  0  0  0  0  0  0  0  0  0  0  0
    1.0170   -2.8720   -0.8710 C   0  0  0  0  0  2  0  0  0  0  0  0
    2.0920   -3.3290   -1.8430 C   0  0  0  0  0  1  0  0  0  0  0  0
    0.0520   -1.7800    3.5740 N   0  0  0  0  0  0  0  0  0  0  0  0
   -0.6370   -1.0760    3.2700 H   0  0  0  0  0  0  0  0  0  0  0  0
   -0.0070   -2.2200    4.8600 C   0  0  0  0  0  3  0  0  0  0  0  0
    0.7550   -3.0820    5.2670 O   0  0  0  0  0  0  0  0  0  0  0  0
    2.4420   -1.9160    3.0210 C   0  0  0  0  0  3  0  0  0  0  0  0
    2.6640   -1.1150    4.0820 O   0  0  0  0  0  0  0  0  0  0  0  0
    3.5400   -0.8870    4.3210 H   0  0  0  0  0  0  0  0  0  0  0  0
    3.4920   -2.3760    2.3140 O   0  0  0  0  0  0  0  0  0  0  0  0
    3.3510   -2.9340    1.5740 H   0  0  0  0  0  0  0  0  0  0  0  0
  1  2  1  6  0  0  0
  1 13  1  0  0  0  0
  1  9  1  0  0  0  0
  3  2  1  0  0  0  0
  4  5  1  0  0  0  0
  4  3  1  0  0  0  0
  6  2  1  0  0  0  0
  7  6  1  0  0  0  0
  8  7  1  0  0  0  0
  9 11  1  0  0  0  0
 10  9  1  0  0  0  0
 11 12  2  0  0  0  0
 13 14  1  0  0  0  0
 14 15  1  0  0  0  0
 16 13  1  0  0  0  0
 17 16  1  0  0  0  0
M  END
>  <REMARK>
  10 active torsions:
  status: ('A' for Active; 'I' for Inactive)
    1  A    between atoms: C_2  and  O_3 
    2  A    between atoms: O_3  and  C_4 
    3  A    between atoms: C_4  and  O_5 
    4  A    between atoms: C_4  and  C_8 
    5  A    between atoms: O_5  and  C_6 
    6  A    between atoms: C_8  and  N_9 
    7  A    between atoms: C_8  and  C_12 
    8  A    between atoms: N_9  and  C_10 
    9  A    between atoms: C_12  and  O_13 
   10  A    between atoms: C_12  and  O_14 

>  <TORSDO>
F 10

$$$$
C:\Users\siddh\.mgltools\PyRx\Ligands\ZINC000043830512_uff_E=2252.27.pdbqt
 OpenBabel04182118313D

 15 16  0  0  0  0  0  0  0  0999 V2000
   -1.3140    1.9090   -0.0870 C   0  0  0  0  0  3  0  0  0  0  0  0
   -2.2330    1.5010    1.0560 C   0  0  0  0  0  2  0  0  0  0  0  0
   -2.0250    2.7760    1.7520 N   0  0  0  0  0  0  0  0  0  0  0  0
   -1.3370    3.2900    0.5620 C   0  0  0  0  0  2  0  0  0  0  0  0
   -3.5210    3.6490    2.2330 S   0  0  0  0  0  0  0  0  0  0  0  0
   -3.5660    4.9360    1.3910 O   0  0  0  0  0  0  0  0  0  0  0  0
   -4.7290    2.8590    1.7010 O   0  0  0  0  0  0  0  0  0  0  0  0
   -3.6110    3.9670    4.0280 C   0  0  0  0  0  3  0  0  0  0  0  0
   -4.5490    5.0430    4.5450 C   0  0  0  0  0  2  0  0  0  0  0  0
   -3.0870    5.3720    4.2860 C   0  0  0  0  0  2  0  0  0  0  0  0
    0.0100    1.1880   -0.0210 C   0  0  0  0  0  3  0  0  0  0  0  0
    0.0580   -0.1300   -0.3030 O   0  0  0  0  0  0  0  0  0  0  0  0
    0.1430   -0.9210   -0.7970 H   0  0  0  0  0  0  0  0  0  0  0  0
    1.1460    1.8400    0.2870 O   0  0  0  0  0  0  0  0  0  0  0  0
    1.1220    2.7560    0.4840 H   0  0  0  0  0  0  0  0  0  0  0  0
  1 11  1  0  0  0  0
  1  4  1  0  0  0  0
  1  2  1  0  0  0  0
  2  3  1  0  0  0  0
  3  5  1  0  0  0  0
  4  3  1  0  0  0  0
  5  8  1  0  0  0  0
  6  5  2  0  0  0  0
  7  5  2  0  0  0  0
  8 10  1  0  0  0  0
  8  9  1  0  0  0  0
 10  9  1  0  0  0  0
 11 14  1  0  0  0  0
 12 11  1  0  0  0  0
 13 12  1  0  0  0  0
 14 15  1  0  0  0  0
M  END
>  <REMARK>
  5 active torsions:
  status: ('A' for Active; 'I' for Inactive)
    1  A    between atoms: O_1  and  C_2 
    2  A    between atoms: C_2  and  O_3 
    3  A    between atoms: C_2  and  C_4 
    4  A    between atoms: N_6  and  S_7 
    5  A    between atoms: S_7  and  C_10 

>  <TORSDO>
F 5

$$$$
C:\Users\siddh\.mgltools\PyRx\Ligands\ZINC000043700821_uff_E=357.52.pdbqt
 OpenBabel04182118313D

 20 21  0  0  1  0  0  0  0  0999 V2000
    0.0350   -0.1180    0.1000 O   0  0  0  0  0  0  0  0  0  0  0  0
   -0.0280    1.2260    0.0300 C   0  0  0  0  0  3  0  0  0  0  0  0
    0.1540   -1.0390    0.2310 H   0  0  0  0  0  0  0  0  0  0  0  0
    1.1110    1.9420   -0.0280 O   0  0  0  0  0  0  0  0  0  0  0  0
    1.0750    2.8770   -0.0770 H   0  0  0  0  0  0  0  0  0  0  0  0
   -1.3590    1.9270    0.0130 C   0  0  2  0  0  3  0  0  0  0  0  0
   -2.3990    0.9650    0.1430 O   0  0  0  0  0  0  0  0  0  0  0  0
   -3.6610    1.6100    0.2080 C   0  0  0  0  0  2  0  0  0  0  0  0
   -3.9500    2.3390   -1.1060 C   0  0  0  0  0  2  0  0  0  0  0  0
   -2.8580    3.2730   -1.3480 N   0  0  0  0  0  0  0  0  0  0  0  0
   -1.5180    2.7040   -1.3100 C   0  0  0  0  0  2  0  0  0  0  0  0
   -3.0620    4.6130   -1.5820 C   0  0  0  0  0  0  0  0  0  0  0  0
   -2.1040    5.3460   -1.7930 O   0  0  0  0  0  0  0  0  0  0  0  0
   -4.4560    5.2120   -1.6100 C   0  0  0  0  0  2  0  0  0  0  0  0
   -4.4300    6.6390   -1.9300 N   0  0  0  0  0  0  0  0  0  0  0  0
   -3.7770    7.5480   -1.2230 N   0  0  0  0  0  0  0  0  0  0  0  0
   -3.9680    8.7450   -1.8110 C   0  0  0  0  0  2  0  0  0  0  0  0
   -3.2260    7.3740   -0.3820 H   0  0  0  0  0  0  0  0  0  0  0  0
   -4.7780    8.5800   -2.9180 C   0  0  0  0  0  3  0  0  0  0  0  0
   -5.0530    7.2320   -2.9650 C   0  0  0  0  0  3  0  0  0  0  0  0
  1  3  1  0  0  0  0
  2  1  1  0  0  0  0
  4  2  1  0  0  0  0
  5  4  1  0  0  0  0
  6  2  1  6  0  0  0
  6  7  1  0  0  0  0
  7  8  1  0  0  0  0
  9  8  1  0  0  0  0
 10 11  1  0  0  0  0
 10  9  1  0  0  0  0
 11  6  1  0  0  0  0
 12 10  1  0  0  0  0
 13 12  2  0  0  0  0
 14 12  1  0  0  0  0
 15 14  1  0  0  0  0
 15 16  1  0  0  0  0
 16 18  1  0  0  0  0
 17 16  1  0  0  0  0
 19 17  1  0  0  0  0
 20 19  2  0  0  0  0
 20 15  1  0  0  0  0
M  END
>  <REMARK>
  4 active torsions:
  status: ('A' for Active; 'I' for Inactive)
    1  A    between atoms: C_2  and  O_3 
    2  A    between atoms: C_2  and  C_4 
       I    between atoms: N_6  and  C_7 
    3  A    between atoms: C_7  and  C_9 
    4  A    between atoms: C_9  and  N_10 

>  <TORSDO>
F 4

$$$$
C:\Users\siddh\.mgltools\PyRx\Ligands\ZINC000043700678_uff_E=417.44.pdbqt
 OpenBabel04182118313D

 19 20  0  0  1  0  0  0  0  0999 V2000
   -0.2180   -0.3340    2.4040 C   0  0  0  0  0  0  0  0  0  0  0  0
   -0.1750   -1.1520    3.3100 O   0  0  0  0  0  0  0  0  0  0  0  0
   -0.4060    1.0040    2.7210 N   0  0  0  0  0  0  0  0  0  0  0  0
   -0.6850    2.0400    1.7360 C   0  0  0  0  0  2  0  0  0  0  0  0
   -1.9430    2.7980    2.1630 C   0  0  0  0  0  2  0  0  0  0  0  0
   -1.7860    3.3290    3.4630 O   0  0  0  0  0  0  0  0  0  0  0  0
   -1.6700    2.2710    4.4020 C   0  0  1  0  0  3  0  0  0  0  0  0
   -0.3900    1.4570    4.1150 C   0  0  0  0  0  2  0  0  0  0  0  0
   -0.0100   -0.8550    0.9970 C   0  0  0  0  0  0  0  0  0  0  0  0
   -0.1710   -2.1570    0.6340 N   0  0  0  0  0  0  0  0  0  0  0  0
   -0.5830   -3.2890    1.4630 C   0  0  0  0  0  1  0  0  0  0  0  0
    0.1230   -2.2530   -0.6790 C   0  0  0  0  0  3  0  0  0  0  0  0
    0.5010   -1.0260   -1.1660 C   0  0  0  0  0  3  0  0  0  0  0  0
    0.4410   -0.1420   -0.1120 C   0  0  0  0  0  3  0  0  0  0  0  0
   -1.6220    2.8560    5.7880 C   0  0  0  0  0  3  0  0  0  0  0  0
   -1.6620    4.1920    5.9650 O   0  0  0  0  0  0  0  0  0  0  0  0
   -1.6320    4.5510    6.8310 H   0  0  0  0  0  0  0  0  0  0  0  0
   -1.5500    2.0460    6.8610 O   0  0  0  0  0  0  0  0  0  0  0  0
   -1.5210    1.1170    6.7460 H   0  0  0  0  0  0  0  0  0  0  0  0
  1  3  1  0  0  0  0
  1  2  2  0  0  0  0
  3  8  1  0  0  0  0
  4  5  1  0  0  0  0
  4  3  1  0  0  0  0
  5  6  1  0  0  0  0
  6  7  1  0  0  0  0
  7 15  1  1  0  0  0
  8  7  1  0  0  0  0
  9  1  1  0  0  0  0
 10  9  1  0  0  0  0
 10 11  1  0  0  0  0
 12 10  1  0  0  0  0
 13 12  2  0  0  0  0
 13 14  1  0  0  0  0
 14  9  2  0  0  0  0
 15 16  1  0  0  0  0
 15 18  1  0  0  0  0
 16 17  1  0  0  0  0
 19 18  1  0  0  0  0
M  END
>  <REMARK>
  4 active torsions:
  status: ('A' for Active; 'I' for Inactive)
    1  A    between atoms: C_6  and  C_7 
       I    between atoms: C_7  and  N_9 
    2  A    between atoms: C_13  and  C_14 
    3  A    between atoms: C_14  and  O_15 
    4  A    between atoms: C_14  and  O_16 

>  <TORSDO>
F 4

$$$$
C:\Users\siddh\.mgltools\PyRx\Ligands\ZINC000042784281_uff_E=165.26.pdbqt
 OpenBabel04182118313D

 16 16  0  0  1  0  0  0  0  0999 V2000
    0.9280   -0.7760    1.7220 N   0  0  0  0  0  0  0  0  0  0  0  0
    0.3440   -0.6980    3.0670 C   0  0  0  0  0  2  0  0  0  0  0  0
    1.2520   -1.4300    4.0470 C   0  0  0  0  0  2  0  0  0  0  0  0
    1.4990   -2.7990    3.6220 N   0  0  0  0  0  0  0  0  0  0  0  0
    2.0000   -3.7510    4.5990 C   0  0  0  0  0  1  0  0  0  0  0  0
    1.2640   -3.1930    2.3310 C   0  0  0  0  0  0  0  0  0  0  0  0
    1.3760   -4.3760    2.0300 O   0  0  0  0  0  0  0  0  0  0  0  0
    0.8910   -2.1870    1.2350 C   0  0  2  0  0  3  0  0  0  0  0  0
    1.8540   -2.3790    0.0260 C   0  0  0  0  0  2  0  0  0  0  0  0
    3.2860   -1.9870    0.2930 C   0  0  0  0  0  3  0  0  0  0  0  0
    3.6680   -1.4990    1.4900 O   0  0  0  0  0  0  0  0  0  0  0  0
    4.5620   -1.2620    1.6360 H   0  0  0  0  0  0  0  0  0  0  0  0
    4.1990   -2.1140   -0.6890 O   0  0  0  0  0  0  0  0  0  0  0  0
    3.9430   -2.4520   -1.5250 H   0  0  0  0  0  0  0  0  0  0  0  0
    0.2570    0.1720    0.7990 C   0  0  0  0  0  2  0  0  0  0  0  0
    0.7150    1.6130    1.0460 C   0  0  0  0  0  1  0  0  0  0  0  0
  1  2  1  0  0  0  0
  2  3  1  0  0  0  0
  4  3  1  0  0  0  0
  4  5  1  0  0  0  0
  6  4  1  0  0  0  0
  7  6  2  0  0  0  0
  8  9  1  6  0  0  0
  8  1  1  0  0  0  0
  8  6  1  0  0  0  0
  9 10  1  0  0  0  0
 10 11  1  0  0  0  0
 11 12  1  0  0  0  0
 13 10  1  0  0  0  0
 14 13  1  0  0  0  0
 15 16  1  0  0  0  0
 15  1  1  0  0  0  0
M  END
>  <REMARK>
  5 active torsions:
  status: ('A' for Active; 'I' for Inactive)
    1  A    between atoms: C_2  and  N_3 
    2  A    between atoms: C_10  and  C_11 
    3  A    between atoms: C_11  and  C_12 
    4  A    between atoms: C_12  and  O_13 
    5  A    between atoms: C_12  and  O_14 

>  <TORSDO>
F 5

$$$$
C:\Users\siddh\.mgltools\PyRx\Ligands\ZINC000042699878_uff_E=245.91.pdbqt
 OpenBabel04182118313D

 18 18  0  0  1  0  0  0  0  0999 V2000
   -2.1100   -0.1650   -1.2470 N   0  0  0  0  0  0  0  0  0  0  0  0
   -1.9580   -1.0750   -2.3760 C   0  0  0  0  0  1  0  0  0  0  0  0
   -2.8510    0.9970   -1.3280 C   0  0  0  0  0  0  0  0  0  0  0  0
   -2.9310    1.7300   -0.3500 O   0  0  0  0  0  0  0  0  0  0  0  0
   -1.4380   -0.5230    0.0020 C   0  0  0  0  0  2  0  0  0  0  0  0
    0.0190    0.0010    0.0370 C   0  0  1  0  0  3  0  0  0  0  0  0
    0.0690    1.5360    0.0180 C   0  0  0  0  0  1  0  0  0  0  0  0
    0.7580   -0.5050    1.2550 C   0  0  0  0  0  3  0  0  0  0  0  0
    0.1410   -1.2770    2.1720 O   0  0  0  0  0  0  0  0  0  0  0  0
    0.6130   -1.5820    2.9210 H   0  0  0  0  0  0  0  0  0  0  0  0
    2.0570   -0.1920    1.4230 O   0  0  0  0  0  0  0  0  0  0  0  0
    2.4960    0.3440    0.7920 H   0  0  0  0  0  0  0  0  0  0  0  0
   -3.5630    1.4360   -2.6010 C   0  0  2  0  0  3  0  0  0  0  0  0
   -4.0730    2.7480   -2.4140 O   0  0  0  0  0  0  0  0  0  0  0  0
   -4.7410    3.1720   -3.5860 C   0  0  0  0  0  2  0  0  0  0  0  0
   -5.9000    2.2200   -3.8960 C   0  0  0  0  0  2  0  0  0  0  0  0
   -5.4080    0.9130   -4.0990 O   0  0  0  0  0  0  0  0  0  0  0  0
   -4.7350    0.4820   -2.9330 C   0  0  0  0  0  2  0  0  0  0  0  0
  1  5  1  0  0  0  0
  2  1  1  0  0  0  0
  3  1  1  0  0  0  0
  3  4  2  0  0  0  0
  5  6  1  0  0  0  0
  6  7  1  1  0  0  0
  6  8  1  0  0  0  0
  8 11  1  0  0  0  0
  8  9  1  0  0  0  0
  9 10  1  0  0  0  0
 12 11  1  0  0  0  0
 13 14  1  0  0  0  0
 13  3  1  1  0  0  0
 15 14  1  0  0  0  0
 16 15  1  0  0  0  0
 17 16  1  0  0  0  0
 17 18  1  0  0  0  0
 18 13  1  0  0  0  0
M  END
>  <REMARK>
  6 active torsions:
  status: ('A' for Active; 'I' for Inactive)
    1  A    between atoms: C_2  and  C_3 
    2  A    between atoms: C_2  and  C_14 
    3  A    between atoms: C_3  and  N_4 
       I    between atoms: N_4  and  C_6 
    4  A    between atoms: C_6  and  C_8 
    5  A    between atoms: C_14  and  O_15 
    6  A    between atoms: C_14  and  O_16 

>  <TORSDO>
F 6

$$$$
C:\Users\siddh\.mgltools\PyRx\Ligands\ZINC000042699872_uff_E=229.49.pdbqt
 OpenBabel04182118313D

 18 18  0  0  1  0  0  0  0  0999 V2000
   -2.3800   -0.2720   -1.1180 N   0  0  0  0  0  0  0  0  0  0  0  0
   -2.6250   -1.3670   -2.0510 C   0  0  0  0  0  1  0  0  0  0  0  0
   -2.8440    1.0120   -1.3310 C   0  0  0  0  0  0  0  0  0  0  0  0
   -2.7050    1.8540   -0.4550 O   0  0  0  0  0  0  0  0  0  0  0  0
   -1.6950   -0.6050    0.1330 C   0  0  0  0  0  2  0  0  0  0  0  0
   -0.1630   -0.3920    0.0320 C   0  0  1  0  0  3  0  0  0  0  0  0
    0.2090    1.0780   -0.2070 C   0  0  0  0  0  1  0  0  0  0  0  0
    0.5460   -0.8850    1.2750 C   0  0  0  0  0  3  0  0  0  0  0  0
   -0.1450   -1.3780    2.3220 O   0  0  0  0  0  0  0  0  0  0  0  0
    0.3090   -1.6790    3.0840 H   0  0  0  0  0  0  0  0  0  0  0  0
    1.8920   -0.8450    1.3350 O   0  0  0  0  0  0  0  0  0  0  0  0
    2.3830   -0.5040    0.6130 H   0  0  0  0  0  0  0  0  0  0  0  0
   -3.5690    1.4300   -2.6020 C   0  0  1  0  0  3  0  0  0  0  0  0
   -4.1560    2.7070   -2.4020 O   0  0  0  0  0  0  0  0  0  0  0  0
   -4.8690    3.0830   -3.5620 C   0  0  0  0  0  2  0  0  0  0  0  0
   -3.9140    3.1580   -4.7600 C   0  0  0  0  0  2  0  0  0  0  0  0
   -3.2930    1.9040   -4.9710 O   0  0  0  0  0  0  0  0  0  0  0  0
   -2.5910    1.5240   -3.8010 C   0  0  0  0  0  2  0  0  0  0  0  0
  1  5  1  0  0  0  0
  2  1  1  0  0  0  0
  3  1  1  0  0  0  0
  3  4  2  0  0  0  0
  6  7  1  1  0  0  0
  6  5  1  0  0  0  0
  6  8  1  0  0  0  0
  8 11  1  0  0  0  0
  8  9  1  0  0  0  0
  9 10  1  0  0  0  0
 12 11  1  0  0  0  0
 13 14  1  0  0  0  0
 13  3  1  1  0  0  0
 15 14  1  0  0  0  0
 16 15  1  0  0  0  0
 17 16  1  0  0  0  0
 17 18  1  0  0  0  0
 18 13  1  0  0  0  0
M  END
>  <REMARK>
  6 active torsions:
  status: ('A' for Active; 'I' for Inactive)
    1  A    between atoms: C_2  and  C_3 
    2  A    between atoms: C_2  and  C_14 
    3  A    between atoms: C_3  and  N_4 
       I    between atoms: N_4  and  C_6 
    4  A    between atoms: C_6  and  C_8 
    5  A    between atoms: C_14  and  O_15 
    6  A    between atoms: C_14  and  O_16 

>  <TORSDO>
F 6

$$$$
C:\Users\siddh\.mgltools\PyRx\Ligands\ZINC000042538552_uff_E=455.31.pdbqt
 OpenBabel04182118313D

 19 20  0  0  1  0  0  0  0  0999 V2000
   -1.2560    2.0210   -0.0370 C   0  0  2  0  0  3  0  0  0  0  0  0
   -1.5960    2.5770   -1.4330 C   0  0  0  0  0  2  0  0  0  0  0  0
   -2.3390    3.8010   -1.0350 C   0  0  0  0  0  0  0  0  0  0  0  0
   -2.9490    4.5050   -1.8240 O   0  0  0  0  0  0  0  0  0  0  0  0
   -2.1550    4.1310    0.2570 N   0  0  0  0  0  0  0  0  0  0  0  0
   -1.2350    3.2400    0.9050 C   0  0  0  0  0  2  0  0  0  0  0  0
   -2.5950    5.3830    0.8450 C   0  0  0  0  0  2  0  0  0  0  0  0
   -3.9740    5.1860    1.4660 C   0  0  0  0  0  2  0  0  0  0  0  0
   -4.4430    6.4200    2.0860 N   0  0  0  0  0  0  0  0  0  0  0  0
   -5.1990    7.3730    1.5120 C   0  0  0  0  0  2  0  0  0  0  0  0
   -5.4710    8.3780    2.3710 N   0  0  0  0  0  0  0  0  0  0  0  0
   -4.8590    8.0310    3.5230 C   0  0  0  0  0  3  0  0  0  0  0  0
   -6.0200    9.2180    2.1890 H   0  0  0  0  0  0  0  0  0  0  0  0
   -4.2230    6.8230    3.3470 C   0  0  0  0  0  3  0  0  0  0  0  0
   -0.0220    1.1710    0.0130 C   0  0  0  0  0  3  0  0  0  0  0  0
   -0.1090   -0.1300    0.3500 O   0  0  0  0  0  0  0  0  0  0  0  0
   -0.2550   -0.8580    0.9220 H   0  0  0  0  0  0  0  0  0  0  0  0
    1.1780    1.7070   -0.2810 O   0  0  0  0  0  0  0  0  0  0  0  0
    1.2420    2.6120   -0.5160 H   0  0  0  0  0  0  0  0  0  0  0  0
  1 15  1  6  0  0  0
  1  6  1  0  0  0  0
  2  3  1  0  0  0  0
  2  1  1  0  0  0  0
  3  5  1  0  0  0  0
  4  3  2  0  0  0  0
  5  7  1  0  0  0  0
  5  6  1  0  0  0  0
  7  8  1  0  0  0  0
  8  9  1  0  0  0  0
  9 14  1  0  0  0  0
 10  9  1  0  0  0  0
 10 11  1  0  0  0  0
 11 12  1  0  0  0  0
 13 11  1  0  0  0  0
 14 12  2  0  0  0  0
 15 16  1  0  0  0  0
 16 17  1  0  0  0  0
 18 15  1  0  0  0  0
 19 18  1  0  0  0  0
M  END
>  <REMARK>
  6 active torsions:
  status: ('A' for Active; 'I' for Inactive)
    1  A    between atoms: O_1  and  C_2 
    2  A    between atoms: C_2  and  O_3 
    3  A    between atoms: C_2  and  C_4 
    4  A    between atoms: N_8  and  C_9 
    5  A    between atoms: C_9  and  C_10 
    6  A    between atoms: C_10  and  N_11 

>  <TORSDO>
F 6

$$$$
C:\Users\siddh\.mgltools\PyRx\Ligands\ZINC000042538537_uff_E=433.62.pdbqt
 OpenBabel04182118313D

 19 20  0  0  1  0  0  0  0  0999 V2000
   -1.2610    2.0270   -0.0370 C   0  0  2  0  0  3  0  0  0  0  0  0
   -1.5910    2.5820   -1.4350 C   0  0  0  0  0  2  0  0  0  0  0  0
   -2.3380    3.8040   -1.0440 C   0  0  0  0  0  0  0  0  0  0  0  0
   -2.9450    4.5070   -1.8380 O   0  0  0  0  0  0  0  0  0  0  0  0
   -2.1700    4.1360    0.2490 N   0  0  0  0  0  0  0  0  0  0  0  0
   -1.2470    3.2470    0.9030 C   0  0  0  0  0  2  0  0  0  0  0  0
   -2.6100    5.3920    0.8290 C   0  0  0  0  0  2  0  0  0  0  0  0
   -3.9610    5.1830    1.5100 C   0  0  0  0  0  2  0  0  0  0  0  0
   -4.4500    6.4250    2.1020 N   0  0  0  0  0  0  0  0  0  0  0  0
   -3.8050    7.1110    3.0330 N   0  0  0  0  0  0  0  0  0  0  0  0
   -4.5570    8.1820    3.3540 C   0  0  0  0  0  2  0  0  0  0  0  0
   -2.8990    6.8710    3.4370 H   0  0  0  0  0  0  0  0  0  0  0  0
   -5.7150    8.1620    2.6000 C   0  0  0  0  0  3  0  0  0  0  0  0
   -5.6140    7.0350    1.8160 C   0  0  0  0  0  3  0  0  0  0  0  0
   -0.0290    1.1740    0.0200 C   0  0  0  0  0  3  0  0  0  0  0  0
   -0.1180   -0.1240    0.3670 O   0  0  0  0  0  0  0  0  0  0  0  0
   -0.2680   -0.8400    0.9520 H   0  0  0  0  0  0  0  0  0  0  0  0
    1.1730    1.7040   -0.2810 O   0  0  0  0  0  0  0  0  0  0  0  0
    1.2400    2.6070   -0.5230 H   0  0  0  0  0  0  0  0  0  0  0  0
  1 15  1  6  0  0  0
  1  6  1  0  0  0  0
  2  3  1  0  0  0  0
  2  1  1  0  0  0  0
  3  5  1  0  0  0  0
  4  3  2  0  0  0  0
  5  7  1  0  0  0  0
  5  6  1  0  0  0  0
  7  8  1  0  0  0  0
  8  9  1  0  0  0  0
  9 10  1  0  0  0  0
 10 11  1  0  0  0  0
 10 12  1  0  0  0  0
 13 11  1  0  0  0  0
 14  9  1  0  0  0  0
 14 13  2  0  0  0  0
 15 16  1  0  0  0  0
 16 17  1  0  0  0  0
 18 15  1  0  0  0  0
 19 18  1  0  0  0  0
M  END
>  <REMARK>
  6 active torsions:
  status: ('A' for Active; 'I' for Inactive)
    1  A    between atoms: O_1  and  C_2 
    2  A    between atoms: C_2  and  O_3 
    3  A    between atoms: C_2  and  C_4 
    4  A    between atoms: N_8  and  C_9 
    5  A    between atoms: C_9  and  C_10 
    6  A    between atoms: C_10  and  N_11 

>  <TORSDO>
F 6

$$$$
C:\Users\siddh\.mgltools\PyRx\Ligands\ZINC000042493128_uff_E=193.67.pdbqt
 OpenBabel04182118313D

 17 16  0  0  0  0  0  0  0  0999 V2000
    0.7110   -0.4940    1.1720 N   0  0  0  0  0  0  0  0  0  0  0  0
    2.0720   -0.7000    1.1260 C   0  0  0  0  0  0  0  0  0  0  0  0
    2.6610   -1.1040    2.1180 O   0  0  0  0  0  0  0  0  0  0  0  0
    2.8740   -0.4450   -0.1340 C   0  0  0  0  0  2  0  0  0  0  0  0
    4.2320   -0.7320    0.1100 O   0  0  0  0  0  0  0  0  0  0  0  0
    4.9880   -0.5010   -1.0580 C   0  0  0  0  0  2  0  0  0  0  0  0
    6.4210   -0.8270   -0.7770 C   0  0  0  0  0  3  0  0  0  0  0  0
    6.7960   -1.2670    0.4410 O   0  0  0  0  0  0  0  0  0  0  0  0
    7.6950   -1.4690    0.6090 H   0  0  0  0  0  0  0  0  0  0  0  0
    7.3440   -0.6830   -1.7460 O   0  0  0  0  0  0  0  0  0  0  0  0
    7.0890   -0.3780   -2.5950 H   0  0  0  0  0  0  0  0  0  0  0  0
   -0.0240    0.0150    0.0180 C   0  0  0  0  0  2  0  0  0  0  0  0
   -0.0420    1.5400    0.0180 C   0  0  0  0  0  1  0  0  0  0  0  0
   -0.0330   -0.7800    2.3990 C   0  0  0  0  0  2  0  0  0  0  0  0
   -0.4820   -2.2410    2.4380 C   0  0  0  0  0  2  0  0  0  0  0  0
    0.6530   -3.0790    2.4660 O   0  0  0  0  0  0  0  0  0  0  0  0
    0.2440   -4.4270    2.4840 C   0  0  0  0  0  1  0  0  0  0  0  0
  1 14  1  0  0  0  0
  2  1  1  0  0  0  0
  2  3  2  0  0  0  0
  4  5  1  0  0  0  0
  4  2  1  0  0  0  0
  6  7  1  0  0  0  0
  6  5  1  0  0  0  0
  7  8  1  0  0  0  0
  8  9  1  0  0  0  0
 10  7  1  0  0  0  0
 11 10  1  0  0  0  0
 12 13  1  0  0  0  0
 12  1  1  0  0  0  0
 14 15  1  0  0  0  0
 15 16  1  0  0  0  0
 16 17  1  0  0  0  0
M  END
>  <REMARK>
  10 active torsions:
  status: ('A' for Active; 'I' for Inactive)
    1  A    between atoms: C_2  and  N_3 
    2  A    between atoms: N_3  and  C_4 
       I    between atoms: N_3  and  C_8 
    3  A    between atoms: C_4  and  C_5 
    4  A    between atoms: C_5  and  O_6 
    5  A    between atoms: C_8  and  C_10 
    6  A    between atoms: C_10  and  O_11 
    7  A    between atoms: O_11  and  C_12 
    8  A    between atoms: C_12  and  C_13 
    9  A    between atoms: C_13  and  O_14 
   10  A    between atoms: C_13  and  O_15 

>  <TORSDO>
F 10

$$$$
C:\Users\siddh\.mgltools\PyRx\Ligands\ZINC000042436328_uff_E=389.93.pdbqt
 OpenBabel04182118313D

 19 19  0  0  1  0  0  0  0  0999 V2000
   -2.5440   -2.7430   -0.0050 C   0  0  2  0  0  3  0  0  0  0  0  0
   -3.2160   -3.0700    1.1160 N   0  0  0  0  0  0  0  0  0  0  0  0
   -2.9130   -2.9310    2.0790 H   0  0  0  0  0  0  0  0  0  0  0  0
   -4.3330   -3.6000    0.7140 O   0  0  0  0  0  0  0  0  0  0  0  0
   -4.3700   -3.6090   -0.5980 C   0  0  1  0  0  3  0  0  0  0  0  0
   -3.2430   -3.0740   -1.1110 N   0  0  0  0  0  0  0  0  0  0  0  0
   -2.9840   -2.9510   -2.0890 H   0  0  0  0  0  0  0  0  0  0  0  0
   -5.5040   -4.1560   -1.4100 C   0  0  0  0  0  2  0  0  0  0  0  0
   -5.2710   -5.5280   -1.6400 O   0  0  0  0  0  0  0  0  0  0  0  0
   -6.3290   -6.0840   -2.3960 C   0  0  0  0  0  2  0  0  0  0  0  0
   -6.0550   -7.5400   -2.6310 C   0  0  0  0  0  3  0  0  0  0  0  0
   -4.9370   -8.1130   -2.1430 O   0  0  0  0  0  0  0  0  0  0  0  0
   -4.7730   -9.0230   -2.2930 H   0  0  0  0  0  0  0  0  0  0  0  0
   -6.9310   -8.2830   -3.3340 O   0  0  0  0  0  0  0  0  0  0  0  0
   -7.7100   -7.8910   -3.6760 H   0  0  0  0  0  0  0  0  0  0  0  0
   -1.1830   -2.1070   -0.0140 C   0  0  0  0  0  2  0  0  0  0  0  0
   -1.2830   -0.5800    0.0060 C   0  0  0  0  0  2  0  0  0  0  0  0
    0.0210   -0.0360    0.0010 O   0  0  0  0  0  0  0  0  0  0  0  0
   -0.0550    1.3730    0.0100 C   0  0  0  0  0  1  0  0  0  0  0  0
  1 16  1  6  0  0  0
  1  2  1  0  0  0  0
  2  3  1  0  0  0  0
  4  2  1  0  0  0  0
  5  8  1  6  0  0  0
  5  4  1  0  0  0  0
  6  5  1  0  0  0  0
  6  1  1  0  0  0  0
  7  6  1  0  0  0  0
  9  8  1  0  0  0  0
 10  9  1  0  0  0  0
 11 10  1  0  0  0  0
 11 12  1  0  0  0  0
 13 12  1  0  0  0  0
 14 11  1  0  0  0  0
 15 14  1  0  0  0  0
 16 17  1  0  0  0  0
 18 17  1  0  0  0  0
 18 19  1  0  0  0  0
M  END
>  <REMARK>
  9 active torsions:
  status: ('A' for Active; 'I' for Inactive)
    1  A    between atoms: O_2  and  C_3 
    2  A    between atoms: C_3  and  C_4 
    3  A    between atoms: C_4  and  C_5 
    4  A    between atoms: C_9  and  C_10 
    5  A    between atoms: C_10  and  O_11 
    6  A    between atoms: O_11  and  C_12 
    7  A    between atoms: C_12  and  C_13 
    8  A    between atoms: C_13  and  O_14 
    9  A    between atoms: C_13  and  O_15 

>  <TORSDO>
F 9

$$$$
C:\Users\siddh\.mgltools\PyRx\Ligands\ZINC000042373137_uff_E=144.66.pdbqt
 OpenBabel04182118313D

 18 18  0  0  1  0  0  0  0  0999 V2000
    0.0460   -0.1110    0.0000 O   0  0  0  0  0  0  0  0  0  0  0  0
   -0.0230    1.2350    0.0070 C   0  0  0  0  0  3  0  0  0  0  0  0
    0.1770   -1.0390   -0.0130 H   0  0  0  0  0  0  0  0  0  0  0  0
    1.1110    1.9600    0.0060 O   0  0  0  0  0  0  0  0  0  0  0  0
    1.0680    2.8960    0.0100 H   0  0  0  0  0  0  0  0  0  0  0  0
   -1.3510    1.9270    0.0170 C   0  0  0  0  0  2  0  0  0  0  0  0
   -2.3710    0.9540    0.0110 O   0  0  0  0  0  0  0  0  0  0  0  0
   -3.6340    1.5810    0.0090 C   0  0  0  0  0  2  0  0  0  0  0  0
   -4.7210    0.5280    0.0010 C   0  0  0  0  0  0  0  0  0  0  0  0
   -4.3880   -0.6490   -0.0130 O   0  0  0  0  0  0  0  0  0  0  0  0
   -6.0550    0.8650    0.0330 N   0  0  0  0  0  0  0  0  0  0  0  0
   -7.0920   -0.1690    0.0580 C   0  0  0  0  0  2  0  0  0  0  0  0
   -6.5090    2.2550    0.0550 C   0  0  0  0  0  2  0  0  0  0  0  0
   -8.0770    0.0530   -1.1060 C   0  0  2  0  0  3  0  0  0  0  0  0
   -8.6230    1.4890   -1.0470 C   0  0  0  0  0  2  0  0  0  0  0  0
   -7.4650    2.4930   -1.1170 C   0  0  0  0  0  2  0  0  0  0  0  0
   -9.1510   -0.8470   -1.0190 O   0  0  0  0  0  0  0  0  0  0  0  0
   -8.7790   -1.7560   -1.1660 H   0  0  0  0  0  0  0  0  0  0  0  0
  1  2  1  0  0  0  0
  2  6  1  0  0  0  0
  3  1  1  0  0  0  0
  4  2  1  0  0  0  0
  4  5  1  0  0  0  0
  7  6  1  0  0  0  0
  8  7  1  0  0  0  0
  9  8  1  0  0  0  0
  9 11  1  0  0  0  0
 10  9  2  0  0  0  0
 11 13  1  0  0  0  0
 11 12  1  0  0  0  0
 14 15  1  0  0  0  0
 14 17  1  1  0  0  0
 14 12  1  0  0  0  0
 16 15  1  0  0  0  0
 16 13  1  0  0  0  0
 18 17  1  0  0  0  0
M  END
>  <REMARK>
  6 active torsions:
  status: ('A' for Active; 'I' for Inactive)
    1  A    between atoms: C_2  and  O_3 
    2  A    between atoms: C_2  and  C_4 
    3  A    between atoms: C_4  and  O_5 
    4  A    between atoms: O_5  and  C_6 
    5  A    between atoms: C_6  and  C_7 
       I    between atoms: C_7  and  N_9 
    6  A    between atoms: C_13  and  O_14 

>  <TORSDO>
F 6

$$$$
C:\Users\siddh\.mgltools\PyRx\Ligands\ZINC000040911494_uff_E=619.80.pdbqt
 OpenBabel04182118313D

 16 16  0  0  0  0  0  0  0  0999 V2000
    0.7580   -0.5980   -1.1230 N   0  0  0  0  0  0  0  0  0  0  0  0
    0.3780   -0.0690   -2.4740 C   0  0  0  0  0  2  0  0  0  0  0  0
    1.4330   -0.3630   -3.5460 C   0  0  0  0  0  2  0  0  0  0  0  0
    1.6890   -2.1300   -3.5770 S   0  0  0  0  0  0  0  0  0  0  0  0
    0.5030   -2.8120   -4.2780 O   0  0  0  0  0  0  0  0  0  0  0  0
    2.8800   -2.5300   -4.4600 O   0  0  0  0  0  0  0  0  0  0  0  0
    1.8400   -2.7470   -1.9070 C   0  0  0  0  0  2  0  0  0  0  0  0
    0.7100   -2.1000   -1.1020 C   0  0  0  0  0  2  0  0  0  0  0  0
   -0.0240    0.0090    0.0220 C   0  0  0  0  0  0  0  0  0  0  0  0
   -1.4880   -0.5040    0.0520 C   0  0  0  0  0  1  0  0  0  0  0  0
   -0.0600    1.5590   -0.0470 C   0  0  0  0  0  1  0  0  0  0  0  0
    0.6540   -0.3120    1.3520 C   0  0  0  0  0  3  0  0  0  0  0  0
    1.8430   -0.9450    1.3940 O   0  0  0  0  0  0  0  0  0  0  0  0
    2.2440   -1.1340    2.2200 H   0  0  0  0  0  0  0  0  0  0  0  0
    0.0860    0.0870    2.5090 O   0  0  0  0  0  0  0  0  0  0  0  0
   -0.7400    0.5280    2.4980 H   0  0  0  0  0  0  0  0  0  0  0  0
  1  8  1  0  0  0  0
  1  9  1  0  0  0  0
  2  1  1  0  0  0  0
  3  2  1  0  0  0  0
  4  3  1  0  0  0  0
  4  7  1  0  0  0  0
  5  4  2  0  0  0  0
  6  4  2  0  0  0  0
  7  8  1  0  0  0  0
  9 10  1  0  0  0  0
  9 12  1  0  0  0  0
 11  9  1  0  0  0  0
 12 13  1  0  0  0  0
 12 15  1  0  0  0  0
 13 14  1  0  0  0  0
 16 15  1  0  0  0  0
M  END
>  <REMARK>
  4 active torsions:
  status: ('A' for Active; 'I' for Inactive)
    1  A    between atoms: C_2  and  C_4 
    2  A    between atoms: C_2  and  N_7 
    3  A    between atoms: C_4  and  O_5 
    4  A    between atoms: C_4  and  O_6 

>  <TORSDO>
F 4

$$$$
C:\Users\siddh\.mgltools\PyRx\Ligands\ZINC000040566696_uff_E=248.81.pdbqt
 OpenBabel04182118313D

 18 18  0  0  0  0  0  0  0  0999 V2000
    1.0110   -2.1240   -0.9880 C   0  0  0  0  0  0  0  0  0  0  0  0
    1.1480   -2.7100   -2.2700 C   0  0  0  0  0  0  0  0  0  0  0  0
    0.7920   -4.0710   -2.4110 C   0  0  0  0  0  0  0  0  0  0  0  0
    0.8990   -4.6420   -3.4810 O   0  0  0  0  0  0  0  0  0  0  0  0
    0.3300   -4.7720   -1.3310 N   0  0  0  0  0  0  0  0  0  0  0  0
    0.2060   -4.1810   -0.1080 C   0  0  0  0  0  0  0  0  0  0  0  0
   -0.2130   -4.8270    0.8370 O   0  0  0  0  0  0  0  0  0  0  0  0
    0.5480   -2.8660    0.0580 N   0  0  0  0  0  0  0  0  0  0  0  0
    0.4410   -2.4240    0.9990 H   0  0  0  0  0  0  0  0  0  0  0  0
    0.0820   -5.7190   -1.4380 H   0  0  0  0  0  0  0  0  0  0  0  0
    1.3430   -0.7070   -0.7530 C   0  0  0  0  0  0  0  0  0  0  0  0
    2.4190   -0.4110   -0.2520 O   0  0  0  0  0  0  0  0  0  0  0  0
    0.4150    0.2470   -1.0250 O   0  0  0  0  0  0  0  0  0  0  0  0
    0.6310    1.5950   -0.8270 C   0  0  0  0  0  1  0  0  0  0  0  0
    1.6850   -1.8910   -3.4390 C   0  0  0  0  0  0  0  0  0  0  0  0
    2.9910   -1.5200   -3.1700 F   0  0  0  0  0  0  0  0  0  0  0  0
    1.6770   -2.5850   -4.6360 F   0  0  0  0  0  0  0  0  0  0  0  0
    0.9200   -0.7520   -3.6120 F   0  0  0  0  0  0  0  0  0  0  0  0
  1 11  1  0  0  0  0
  1  8  1  0  0  0  0
  2  1  2  0  0  0  0
  3  2  1  0  0  0  0
  3  5  1  0  0  0  0
  4  3  2  0  0  0  0
  5  6  1  0  0  0  0
  6  8  1  0  0  0  0
  6  7  2  0  0  0  0
  8  9  1  0  0  0  0
 10  5  1  0  0  0  0
 11 12  2  0  0  0  0
 13 14  1  0  0  0  0
 13 11  1  0  0  0  0
 15 16  1  0  0  0  0
 15  2  1  0  0  0  0
 17 15  1  0  0  0  0
 18 15  1  0  0  0  0
M  END
>  <REMARK>
  3 active torsions:
  status: ('A' for Active; 'I' for Inactive)
    1  A    between atoms: O_2  and  C_3 
    2  A    between atoms: C_3  and  C_5 
    3  A    between atoms: C_6  and  C_7 

>  <TORSDO>
F 3

$$$$
C:\Users\siddh\.mgltools\PyRx\Ligands\ZINC000040543942_uff_E=368.82.pdbqt
 OpenBabel04182118313D

 20 21  0  0  1  0  0  0  0  0999 V2000
   -1.3760   -0.5000   -0.0060 N   0  0  0  0  0  0  0  0  0  0  0  0
   -2.3420   -0.2510   -0.9340 C   0  0  0  0  0  0  0  0  0  0  0  0
   -2.2010    0.4480   -1.9250 O   0  0  0  0  0  0  0  0  0  0  0  0
   -3.5590   -0.9410   -0.5520 C   0  0  0  0  0  0  0  0  0  0  0  0
   -4.7660   -1.0050   -1.1560 N   0  0  0  0  0  0  0  0  0  0  0  0
   -4.9410   -0.5160   -2.0330 H   0  0  0  0  0  0  0  0  0  0  0  0
   -5.7450   -1.7460   -0.5570 C   0  0  0  0  0  3  0  0  0  0  0  0
   -5.4810   -2.4170    0.6660 C   0  0  0  0  0  3  0  0  0  0  0  0
   -4.2430   -2.3290    1.2460 N   0  0  0  0  0  0  0  0  0  0  0  0
   -4.0390   -2.8070    2.1230 H   0  0  0  0  0  0  0  0  0  0  0  0
   -3.2990   -1.5880    0.6200 C   0  0  0  0  0  0  0  0  0  0  0  0
   -1.9090   -1.3000    0.9580 C   0  0  0  0  0  0  0  0  0  0  0  0
   -1.3070   -1.7020    1.9420 O   0  0  0  0  0  0  0  0  0  0  0  0
   -0.0060    0.0060   -0.0270 C   0  0  2  0  0  3  0  0  0  0  0  0
    0.0020    1.5360    0.0140 C   0  0  0  0  0  1  0  0  0  0  0  0
    0.7560   -0.5030   -1.2300 C   0  0  0  0  0  3  0  0  0  0  0  0
    2.0880   -0.6790   -1.1500 O   0  0  0  0  0  0  0  0  0  0  0  0
    2.5640   -0.9940   -1.8930 H   0  0  0  0  0  0  0  0  0  0  0  0
    0.1270   -0.7730   -2.3910 O   0  0  0  0  0  0  0  0  0  0  0  0
   -0.8000   -0.6550   -2.4600 H   0  0  0  0  0  0  0  0  0  0  0  0
  1 12  1  0  0  0  0
  2  4  1  0  0  0  0
  2  1  1  0  0  0  0
  3  2  2  0  0  0  0
  4 11  2  0  0  0  0
  5  7  1  0  0  0  0
  5  4  1  0  0  0  0
  6  5  1  0  0  0  0
  7  8  2  0  0  0  0
  8  9  1  0  0  0  0
  9 10  1  0  0  0  0
 11 12  1  0  0  0  0
 11  9  1  0  0  0  0
 12 13  2  0  0  0  0
 14  1  1  0  0  0  0
 14 15  1  6  0  0  0
 16 17  1  0  0  0  0
 16 14  1  0  0  0  0
 18 17  1  0  0  0  0
 19 16  1  0  0  0  0
 20 19  1  0  0  0  0
M  END
>  <REMARK>
  4 active torsions:
  status: ('A' for Active; 'I' for Inactive)
    1  A    between atoms: C_2  and  C_3 
    2  A    between atoms: C_2  and  N_6 
    3  A    between atoms: C_3  and  O_4 
    4  A    between atoms: C_3  and  O_5 

>  <TORSDO>
F 4

$$$$
C:\Users\siddh\.mgltools\PyRx\Ligands\ZINC000040543936_uff_E=352.47.pdbqt
 OpenBabel04182118313D

 19 20  0  0  0  0  0  0  0  0999 V2000
    0.0110   -0.1240    0.0010 O   0  0  0  0  0  0  0  0  0  0  0  0
   -0.0260    1.2240    0.0070 C   0  0  0  0  0  3  0  0  0  0  0  0
    0.0830   -1.0580   -0.0100 H   0  0  0  0  0  0  0  0  0  0  0  0
    1.1230    1.9230    0.0030 O   0  0  0  0  0  0  0  0  0  0  0  0
    1.1010    2.8600    0.0070 H   0  0  0  0  0  0  0  0  0  0  0  0
   -1.3340    1.9510    0.0190 C   0  0  0  0  0  2  0  0  0  0  0  0
   -2.4320    1.0060    0.0190 N   0  0  0  0  0  0  0  0  0  0  0  0
   -3.0150    0.4740    1.1220 C   0  0  0  0  0  0  0  0  0  0  0  0
   -4.0590   -0.4490    0.7020 C   0  0  0  0  0  0  0  0  0  0  0  0
   -2.6960    0.7340    2.2710 O   0  0  0  0  0  0  0  0  0  0  0  0
   -4.0620   -0.4460   -0.6640 C   0  0  0  0  0  0  0  0  0  0  0  0
   -4.9190   -1.2100    1.4150 N   0  0  0  0  0  0  0  0  0  0  0  0
   -3.0200    0.4800   -1.0840 C   0  0  0  0  0  0  0  0  0  0  0  0
   -4.9240   -1.2040   -1.3780 N   0  0  0  0  0  0  0  0  0  0  0  0
   -2.7070    0.7480   -2.2330 O   0  0  0  0  0  0  0  0  0  0  0  0
   -5.8100   -1.9860   -0.6910 C   0  0  0  0  0  3  0  0  0  0  0  0
   -4.9130   -1.1930   -2.3980 H   0  0  0  0  0  0  0  0  0  0  0  0
   -5.8080   -1.9890    0.7280 C   0  0  0  0  0  3  0  0  0  0  0  0
   -4.9050   -1.2030    2.4350 H   0  0  0  0  0  0  0  0  0  0  0  0
  1  2  1  0  0  0  0
  2  6  1  0  0  0  0
  3  1  1  0  0  0  0
  4  2  1  0  0  0  0
  4  5  1  0  0  0  0
  6  7  1  0  0  0  0
  7  8  1  0  0  0  0
  8 10  2  0  0  0  0
  9  8  1  0  0  0  0
  9 12  1  0  0  0  0
 11  9  2  0  0  0  0
 12 19  1  0  0  0  0
 13 11  1  0  0  0  0
 13  7  1  0  0  0  0
 14 16  1  0  0  0  0
 14 11  1  0  0  0  0
 15 13  2  0  0  0  0
 16 18  2  0  0  0  0
 17 14  1  0  0  0  0
 18 12  1  0  0  0  0
M  END
>  <REMARK>
  3 active torsions:
  status: ('A' for Active; 'I' for Inactive)
    1  A    between atoms: C_2  and  O_3 
    2  A    between atoms: C_2  and  C_4 
    3  A    between atoms: C_4  and  N_5 

>  <TORSDO>
F 3

$$$$
C:\Users\siddh\.mgltools\PyRx\Ligands\ZINC000040542857_uff_E=710.07.pdbqt
 OpenBabel04182118313D

 19 19  0  0  1  0  0  0  0  0999 V2000
    0.1080   -0.2510    2.7640 S   0  0  0  0  0  0  0  0  0  0  0  0
   -1.1270    0.6040    3.0860 O   0  0  0  0  0  0  0  0  0  0  0  0
   -0.1530   -1.4320    3.7110 O   0  0  0  0  0  0  0  0  0  0  0  0
    0.0740   -0.8090    1.0590 C   0  0  0  0  0  0  0  0  0  0  0  0
   -0.0610   -0.0500   -0.0890 C   0  0  2  0  0  3  0  0  0  0  0  0
   -0.1830    1.4340   -0.1770 C   0  0  0  0  0  1  0  0  0  0  0  0
   -0.0790   -0.8720   -1.1580 N   0  0  0  0  0  0  0  0  0  0  0  0
    0.0380   -2.1150   -0.7140 N   0  0  0  0  0  0  0  0  0  0  0  0
   -0.1670   -0.5870   -2.1340 H   0  0  0  0  0  0  0  0  0  0  0  0
    0.0430   -3.2930   -1.5710 C   0  0  0  0  0  1  0  0  0  0  0  0
    0.1350   -2.1150    0.6280 C   0  0  0  0  0  3  0  0  0  0  0  0
    1.4750    0.6160    3.5140 N   0  0  0  0  0  0  0  0  0  0  0  0
    1.6790    1.9820    3.0160 C   0  0  0  0  0  1  0  0  0  0  0  0
    2.7040   -0.1860    3.6670 C   0  0  0  0  0  3  0  0  0  0  0  0
    3.3990   -0.5470    2.3750 C   0  0  0  0  0  0  0  0  0  0  0  0
    2.9230   -0.1510    1.1800 O   0  0  0  0  0  0  0  0  0  0  0  0
    3.3730   -0.3890    0.3940 H   0  0  0  0  0  0  0  0  0  0  0  0
    4.5280   -1.2790    2.4210 O   0  0  0  0  0  0  0  0  0  0  0  0
    4.8700   -1.5610    3.2460 H   0  0  0  0  0  0  0  0  0  0  0  0
  1  2  2  0  0  0  0
  1 12  1  0  0  0  0
  1  3  2  0  0  0  0
  4  1  1  0  0  0  0
  5  6  1  1  0  0  0
  5  4  1  0  0  0  0
  7  8  1  0  0  0  0
  7  5  1  0  0  0  0
  8 11  1  0  0  0  0
  9  7  1  0  0  0  0
 10  8  1  0  0  0  0
 11  4  2  0  0  0  0
 12 14  1  0  0  0  0
 13 12  1  0  0  0  0
 15 18  1  0  0  0  0
 15 14  2  0  0  0  0
 16 15  1  0  0  0  0
 17 16  1  0  0  0  0
 18 19  1  0  0  0  0
M  END
>  <REMARK>
  6 active torsions:
  status: ('A' for Active; 'I' for Inactive)
    1  A    between atoms: C_8  and  S_9 
    2  A    between atoms: S_9  and  N_12 
    3  A    between atoms: N_12  and  C_14 
    4  A    between atoms: C_14  and  C_15 
    5  A    between atoms: C_15  and  O_16 
    6  A    between atoms: C_15  and  O_17 

>  <TORSDO>
F 6

$$$$
C:\Users\siddh\.mgltools\PyRx\Ligands\ZINC000040541970_uff_E=347.04.pdbqt
 OpenBabel04182118313D

 19 20  0  0  1  0  0  0  0  0999 V2000
   -0.0490    5.4270    0.0440 C   0  0  0  0  0  2  0  0  0  0  0  0
   -0.0430    3.9570    0.0320 N   0  0  0  0  0  0  0  0  0  0  0  0
   -1.2290    3.2770    0.0410 C   0  0  0  0  0  3  0  0  0  0  0  0
   -1.2460    1.8850    0.0310 C   0  0  0  0  0  3  0  0  0  0  0  0
   -0.0370    1.1940    0.0100 C   0  0  0  0  0  0  0  0  0  0  0  0
   -0.0300   -0.0240    0.0010 O   0  0  0  0  0  0  0  0  0  0  0  0
    1.1450    1.8880    0.0000 N   0  0  0  0  0  0  0  0  0  0  0  0
    1.1500    3.2580    0.0120 C   0  0  0  0  0  0  0  0  0  0  0  0
    2.0520    1.3690   -0.0150 H   0  0  0  0  0  0  0  0  0  0  0  0
    2.2160    3.8540    0.0050 O   0  0  0  0  0  0  0  0  0  0  0  0
   -0.0140    5.9540    1.4840 C   0  0  0  0  0  2  0  0  0  0  0  0
    0.0000    7.4600    1.5270 C   0  0  1  0  0  3  0  0  0  0  0  0
    0.0270    8.1810    2.6260 O   0  0  0  0  0  0  0  0  0  0  0  0
    0.0300    9.4300    2.2260 C   0  0  0  0  0  0  0  0  0  0  0  0
    0.0070    9.5100    0.8860 N   0  0  0  0  0  0  0  0  0  0  0  0
    0.0550   10.5670    3.0980 S   0  0  0  0  0  0  0  0  0  0  0  0
   -0.0120    8.2630    0.4400 N   0  0  0  0  0  0  0  0  0  0  0  0
    0.0040   10.3310    0.3430 H   0  0  0  0  0  0  0  0  0  0  0  0
   -0.0320    7.9660   -0.5350 H   0  0  0  0  0  0  0  0  0  0  0  0
  1 11  1  0  0  0  0
  2  3  1  0  0  0  0
  2  1  1  0  0  0  0
  4  3  2  0  0  0  0
  5  4  1  0  0  0  0
  6  5  2  0  0  0  0
  7  5  1  0  0  0  0
  7  8  1  0  0  0  0
  8  2  1  0  0  0  0
  9  7  1  0  0  0  0
 10  8  2  0  0  0  0
 12 11  1  6  0  0  0
 12 13  1  0  0  0  0
 14 13  1  0  0  0  0
 14 16  2  0  0  0  0
 15 14  1  0  0  0  0
 17 15  1  0  0  0  0
 17 12  1  0  0  0  0
 18 15  1  0  0  0  0
 19 17  1  0  0  0  0
M  END
>  <REMARK>
  3 active torsions:
  status: ('A' for Active; 'I' for Inactive)
    1  A    between atoms: N_5  and  C_6 
    2  A    between atoms: C_6  and  C_7 
    3  A    between atoms: C_7  and  C_8 

>  <TORSDO>
F 3

$$$$
C:\Users\siddh\.mgltools\PyRx\Ligands\ZINC000040447969_uff_E=138.29.pdbqt
 OpenBabel04182118313D

 16 16  0  0  1  0  0  0  0  0999 V2000
   -1.2930   -2.1080   -0.0600 C   0  0  1  0  0  3  0  0  0  0  0  0
   -1.0540   -2.5950    1.3710 C   0  0  0  0  0  2  0  0  0  0  0  0
   -1.1730   -4.3920    1.4240 S   0  0  0  0  0  0  0  0  0  0  0  0
   -2.9430   -4.4180    0.9780 C   0  0  0  0  0  2  0  0  0  0  0  0
   -3.3370   -3.4870   -0.1550 C   0  0  0  0  0  0  0  0  0  0  0  0
   -2.5770   -2.5380   -0.5910 N   0  0  0  0  0  0  0  0  0  0  0  0
   -2.9190   -2.0290   -1.4060 H   0  0  0  0  0  0  0  0  0  0  0  0
   -4.6540   -3.6730   -0.8020 C   0  0  0  0  0  0  0  0  0  0  0  0
   -5.0180   -2.8740   -1.8270 O   0  0  0  0  0  0  0  0  0  0  0  0
   -5.8520   -2.9910   -2.2380 H   0  0  0  0  0  0  0  0  0  0  0  0
   -5.4920   -4.6390   -0.3860 O   0  0  0  0  0  0  0  0  0  0  0  0
   -5.2470   -5.1980    0.3250 H   0  0  0  0  0  0  0  0  0  0  0  0
   -1.2320   -0.6000   -0.0930 C   0  0  0  0  0  0  0  0  0  0  0  0
   -2.2300    0.0480   -0.3840 O   0  0  0  0  0  0  0  0  0  0  0  0
   -0.0570    0.0330    0.1610 O   0  0  0  0  0  0  0  0  0  0  0  0
    0.0740    1.4060    0.1180 C   0  0  0  0  0  1  0  0  0  0  0  0
  1 13  1  1  0  0  0
  1  2  1  0  0  0  0
  2  3  1  0  0  0  0
  4  3  1  0  0  0  0
  5  4  1  0  0  0  0
  6  5  1  0  0  0  0
  6  1  1  0  0  0  0
  7  6  1  0  0  0  0
  8 11  1  0  0  0  0
  8  5  2  0  0  0  0
  9  8  1  0  0  0  0
 10  9  1  0  0  0  0
 11 12  1  0  0  0  0
 13 15  1  0  0  0  0
 14 13  2  0  0  0  0
 16 15  1  0  0  0  0
M  END
>  <REMARK>
  5 active torsions:
  status: ('A' for Active; 'I' for Inactive)
    1  A    between atoms: O_2  and  C_3 
    2  A    between atoms: C_3  and  C_5 
    3  A    between atoms: C_9  and  C_10 
    4  A    between atoms: C_10  and  O_11 
    5  A    between atoms: C_10  and  O_12 

>  <TORSDO>
F 5

$$$$
C:\Users\siddh\.mgltools\PyRx\Ligands\ZINC000040447968_uff_E=138.29.pdbqt
 OpenBabel04182118313D

 16 16  0  0  1  0  0  0  0  0999 V2000
   -1.2920   -2.1090    0.0660 C   0  0  2  0  0  3  0  0  0  0  0  0
   -1.0800   -2.5800   -1.3750 C   0  0  0  0  0  2  0  0  0  0  0  0
   -1.2010   -4.3770   -1.4450 S   0  0  0  0  0  0  0  0  0  0  0  0
   -2.9620   -4.4070   -0.9650 C   0  0  0  0  0  3  0  0  0  0  0  0
   -3.3340   -3.4890    0.1850 C   0  0  0  0  0  0  0  0  0  0  0  0
   -2.5660   -2.5450    0.6170 N   0  0  0  0  0  0  0  0  0  0  0  0
   -2.8910   -2.0440    1.4440 H   0  0  0  0  0  0  0  0  0  0  0  0
   -4.6380   -3.6820    0.8560 C   0  0  0  0  0  3  0  0  0  0  0  0
   -4.9830   -2.8940    1.8950 O   0  0  0  0  0  0  0  0  0  0  0  0
   -5.8090   -3.0150    2.3210 H   0  0  0  0  0  0  0  0  0  0  0  0
   -5.4840   -4.6440    0.4450 O   0  0  0  0  0  0  0  0  0  0  0  0
   -5.2520   -5.1950   -0.2770 H   0  0  0  0  0  0  0  0  0  0  0  0
   -1.2300   -0.6010    0.1140 C   0  0  0  0  0  0  0  0  0  0  0  0
   -2.2220    0.0440    0.4310 O   0  0  0  0  0  0  0  0  0  0  0  0
   -0.0600    0.0350   -0.1550 O   0  0  0  0  0  0  0  0  0  0  0  0
    0.0720    1.4070   -0.1010 C   0  0  0  0  0  1  0  0  0  0  0  0
  1 13  1  6  0  0  0
  1  6  1  0  0  0  0
  2  1  1  0  0  0  0
  3  2  1  0  0  0  0
  3  4  1  0  0  0  0
  4  5  2  0  0  0  0
  5  6  1  0  0  0  0
  5  8  1  0  0  0  0
  6  7  1  0  0  0  0
  8  9  1  0  0  0  0
  9 10  1  0  0  0  0
 11  8  1  0  0  0  0
 12 11  1  0  0  0  0
 13 14  2  0  0  0  0
 15 16  1  0  0  0  0
 15 13  1  0  0  0  0
M  END
>  <REMARK>
  5 active torsions:
  status: ('A' for Active; 'I' for Inactive)
    1  A    between atoms: O_2  and  C_3 
    2  A    between atoms: C_3  and  C_5 
    3  A    between atoms: C_9  and  C_10 
    4  A    between atoms: C_10  and  O_11 
    5  A    between atoms: C_10  and  O_12 

>  <TORSDO>
F 5

$$$$
C:\Users\siddh\.mgltools\PyRx\Ligands\ZINC000040385796_uff_E=256.40.pdbqt
 OpenBabel04182118313D

 21 21  0  0  1  0  0  0  0  0999 V2000
    1.1710   -2.5060    2.5930 N   0  0  0  0  0  0  0  0  0  0  0  0
    0.9590   -3.7920    2.9980 C   0  0  0  0  0  0  0  0  0  0  0  0
    0.3210   -4.5610    2.2920 O   0  0  0  0  0  0  0  0  0  0  0  0
    1.6750   -1.8690    3.2260 H   0  0  0  0  0  0  0  0  0  0  0  0
    0.6680   -2.0200    1.3080 C   0  0  1  0  0  3  0  0  0  0  0  0
    0.8100   -0.4680    1.2040 C   0  0  1  0  0  3  0  0  0  0  0  0
    2.2890   -0.0230    1.1720 C   0  0  0  0  0  1  0  0  0  0  0  0
    0.0200    0.0890   -0.0100 C   0  0  0  0  0  2  0  0  0  0  0  0
   -0.0810    1.6140   -0.0270 C   0  0  0  0  0  1  0  0  0  0  0  0
    1.3470   -2.7490    0.1570 C   0  0  0  0  0  3  0  0  0  0  0  0
    2.3940   -3.5660    0.3870 O   0  0  0  0  0  0  0  0  0  0  0  0
    2.8070   -4.0120   -0.3270 H   0  0  0  0  0  0  0  0  0  0  0  0
    0.9010   -2.5980   -1.1040 O   0  0  0  0  0  0  0  0  0  0  0  0
    0.1750   -2.0340   -1.2800 H   0  0  0  0  0  0  0  0  0  0  0  0
    1.5160   -4.2810    4.3180 C   0  0  2  0  0  3  0  0  0  0  0  0
    1.2020   -5.6640    4.5570 N   0  0  0  0  0  0  0  0  0  0  0  0
    0.8420   -5.8770    5.8270 C   0  0  0  0  0  0  0  0  0  0  0  0
    1.3790   -6.4230    3.8830 H   0  0  0  0  0  0  0  0  0  0  0  0
    0.8460   -4.6450    6.6530 C   0  0  0  0  0  2  0  0  0  0  0  0
    0.6640   -6.9990    6.2750 O   0  0  0  0  0  0  0  0  0  0  0  0
    0.8710   -3.5820    5.5370 C   0  0  0  0  0  2  0  0  0  0  0  0
  1  2  1  0  0  0  0
  1  4  1  0  0  0  0
  3  2  2  0  0  0  0
  5 10  1  6  0  0  0
  5  1  1  0  0  0  0
  6  7  1  6  0  0  0
  6  5  1  0  0  0  0
  8  6  1  0  0  0  0
  9  8  1  0  0  0  0
 10 11  1  0  0  0  0
 12 11  1  0  0  0  0
 13 10  1  0  0  0  0
 14 13  1  0  0  0  0
 15  2  1  6  0  0  0
 15 16  1  0  0  0  0
 15 21  1  0  0  0  0
 16 17  1  0  0  0  0
 17 20  2  0  0  0  0
 17 19  1  0  0  0  0
 18 16  1  0  0  0  0
 21 19  1  0  0  0  0
M  END
>  <REMARK>
  7 active torsions:
  status: ('A' for Active; 'I' for Inactive)
    1  A    between atoms: C_2  and  C_3 
    2  A    between atoms: C_3  and  C_5 
    3  A    between atoms: C_5  and  N_6 
    4  A    between atoms: C_5  and  C_15 
       I    between atoms: N_6  and  C_7 
    5  A    between atoms: C_7  and  C_9 
    6  A    between atoms: C_15  and  O_16 
    7  A    between atoms: C_15  and  O_17 

>  <TORSDO>
F 7

$$$$
C:\Users\siddh\.mgltools\PyRx\Ligands\ZINC000040267270_uff_E=922.23.pdbqt
 OpenBabel04182118313D

 20 21  0  0  1  0  0  0  0  0999 V2000
    0.2020   -0.4030    2.7660 S   0  0  0  0  0  0  0  0  0  0  0  0
   -0.5040    0.9180    3.1120 O   0  0  0  0  0  0  0  0  0  0  0  0
   -0.4600   -1.4160    3.7140 O   0  0  0  0  0  0  0  0  0  0  0  0
    0.0140   -0.8590    1.0430 C   0  0  0  0  0  0  0  0  0  0  0  0
   -0.0870   -0.0260   -0.0480 C   0  0  1  0  0  3  0  0  0  0  0  0
   -0.0570    1.4680   -0.0480 C   0  0  0  0  0  1  0  0  0  0  0  0
   -0.2090   -0.7800   -1.1590 N   0  0  0  0  0  0  0  0  0  0  0  0
   -0.1740   -2.0300   -0.7870 O   0  0  0  0  0  0  0  0  0  0  0  0
   -0.3090   -0.4370   -2.1140 H   0  0  0  0  0  0  0  0  0  0  0  0
   -0.0420   -2.1300    0.5170 C   0  0  0  0  0  0  0  0  0  0  0  0
    0.0400   -3.4180    1.2670 C   0  0  0  0  0  1  0  0  0  0  0  0
    1.8850   -0.2350    3.3100 N   0  0  0  0  0  0  0  0  0  0  0  0
    2.6570   -0.3720    2.7150 H   0  0  0  0  0  0  0  0  0  0  0  0
    2.0180    0.1130    4.6730 N   0  0  0  0  0  0  0  0  0  0  0  0
    3.1930    0.2890    5.2910 C   0  0  0  0  0  2  0  0  0  0  0  0
    3.0000    0.6150    6.5830 N   0  0  0  0  0  0  0  0  0  0  0  0
    1.6900    0.6480    6.7910 N   0  0  0  0  0  0  0  0  0  0  0  0
    3.7260    0.8020    7.2750 H   0  0  0  0  0  0  0  0  0  0  0  0
    1.0900    0.3410    5.6240 C   0  0  0  0  0  2  0  0  0  0  0  0
    1.2230    0.8650    7.6720 H   0  0  0  0  0  0  0  0  0  0  0  0
  1  2  2  0  0  0  0
  1 12  1  0  0  0  0
  1  3  2  0  0  0  0
  4  1  1  0  0  0  0
  5  6  1  6  0  0  0
  5  4  1  0  0  0  0
  7  8  1  0  0  0  0
  7  5  1  0  0  0  0
  8 10  1  0  0  0  0
  9  7  1  0  0  0  0
 10  4  2  0  0  0  0
 10 11  1  0  0  0  0
 12 14  1  0  0  0  0
 13 12  1  0  0  0  0
 14 15  1  0  0  0  0
 14 19  1  0  0  0  0
 15 16  1  0  0  0  0
 16 17  1  0  0  0  0
 16 18  1  0  0  0  0
 17 20  1  0  0  0  0
 19 17  1  0  0  0  0
M  END
>  <REMARK>
  3 active torsions:
  status: ('A' for Active; 'I' for Inactive)
    1  A    between atoms: C_8  and  S_9 
    2  A    between atoms: S_9  and  N_12 
    3  A    between atoms: N_12  and  N_13 

>  <TORSDO>
F 3

$$$$
C:\Users\siddh\.mgltools\PyRx\Ligands\ZINC000040163924_uff_E=347.22.pdbqt
 OpenBabel04182118313D

 19 21  0  0  0  0  0  0  0  0999 V2000
   -0.0520    0.0200    0.0040 O   0  0  0  0  0  0  0  0  0  0  0  0
   -0.0510    1.2410    0.0100 C   0  0  0  0  0  0  0  0  0  0  0  0
   -1.2640    1.9460    0.0310 C   0  0  0  0  0  0  0  0  0  0  0  0
   -1.2470    3.3570    0.0380 C   0  0  0  0  0  0  0  0  0  0  0  0
   -0.0220    4.0330    0.0230 C   0  0  0  0  0  3  0  0  0  0  0  0
    1.1680    3.2940    0.0030 C   0  0  0  0  0  3  0  0  0  0  0  0
    1.1420    1.9300   -0.0030 N   0  0  0  0  0  0  0  0  0  0  0  0
   -2.4480    3.9990    0.0580 N   0  0  0  0  0  0  0  0  0  0  0  0
   -2.6970    5.3010    0.0690 N   0  0  0  0  0  0  0  0  0  0  0  0
   -2.0030    6.0490    0.0630 H   0  0  0  0  0  0  0  0  0  0  0  0
   -4.0470    5.4550    0.0890 C   0  0  0  0  0  2  0  0  0  0  0  0
   -4.6530    4.2020    0.0910 C   0  0  0  0  0  3  0  0  0  0  0  0
   -3.5990    3.3250    0.0710 C   0  0  0  0  0  0  0  0  0  0  0  0
   -3.6250    1.9700    0.0650 N   0  0  0  0  0  0  0  0  0  0  0  0
   -4.5150    1.4710    0.0750 H   0  0  0  0  0  0  0  0  0  0  0  0
   -2.4690    1.2940    0.0450 N   0  0  0  0  0  0  0  0  0  0  0  0
   -2.4860    0.2740    0.0400 H   0  0  0  0  0  0  0  0  0  0  0  0
    2.3140    1.2480   -0.0220 O   0  0  0  0  0  0  0  0  0  0  0  0
    2.3100    0.3110   -0.0260 H   0  0  0  0  0  0  0  0  0  0  0  0
  1  2  2  0  0  0  0
  2  3  1  0  0  0  0
  3  4  2  0  0  0  0
  3 16  1  0  0  0  0
  4  8  1  0  0  0  0
  5  4  1  0  0  0  0
  6  5  2  0  0  0  0
  7  6  1  0  0  0  0
  7  2  1  0  0  0  0
  8  9  1  0  0  0  0
  8 13  1  0  0  0  0
  9 11  1  0  0  0  0
 10  9  1  0  0  0  0
 11 12  1  0  0  0  0
 13 12  2  0  0  0  0
 14 13  1  0  0  0  0
 14 15  1  0  0  0  0
 16 14  1  0  0  0  0
 17 16  1  0  0  0  0
 18  7  1  0  0  0  0
 19 18  1  0  0  0  0
M  END
>  <REMARK>
  1 active torsions:
  status: ('A' for Active; 'I' for Inactive)
    1  A    between atoms: N_7  and  O_8 

>  <TORSDO>
F 1

$$$$
C:\Users\siddh\.mgltools\PyRx\Ligands\ZINC000039438676_uff_E=104.57.pdbqt
 OpenBabel04182118313D

 24 24  0  0  1  0  0  0  0  0999 V2000
   -0.0110    1.5140    0.0020 N   0  0  0  0  0  0  0  0  0  0  0  0
    0.0000    0.0990    0.0200 C   0  0  2  0  0  3  0  0  0  0  0  0
   -1.1190   -0.5370    0.0880 N   0  0  0  0  0  0  0  0  0  0  0  0
   -1.9820    0.0060    0.1250 H   0  0  0  0  0  0  0  0  0  0  0  0
   -1.2100   -1.8880    0.1140 C   0  0  0  0  0  0  0  0  0  0  0  0
   -2.3140   -2.3930    0.2380 O   0  0  0  0  0  0  0  0  0  0  0  0
    0.0250   -2.7780    0.0210 C   0  0  2  0  0  3  0  0  0  0  0  0
    1.2900   -1.9510   -0.0040 C   0  0  0  0  0  0  0  0  0  0  0  0
    2.3760   -2.5130   -0.0140 O   0  0  0  0  0  0  0  0  0  0  0  0
    1.2390   -0.5980   -0.0090 N   0  0  0  0  0  0  0  0  0  0  0  0
    0.8730    2.0400   -0.0290 H   0  0  0  0  0  0  0  0  0  0  0  0
   -0.9050    2.0260    0.0240 H   0  0  0  0  0  0  0  0  0  0  0  0
    2.1190   -0.0590   -0.0300 H   0  0  0  0  0  0  0  0  0  0  0  0
   -0.0040   -3.6860   -1.2330 C   0  0  0  0  0  2  0  0  0  0  0  0
   -1.1310   -4.7230   -1.1820 C   0  0  0  0  0  2  0  0  0  0  0  0
   -1.1230   -5.6300   -2.4090 C   0  0  0  0  0  2  0  0  0  0  0  0
   -2.2810   -6.6420   -2.3300 C   0  0  1  0  0  3  0  0  0  0  0  0
   -3.5270   -5.9870   -2.2840 O   0  0  0  0  0  0  0  0  0  0  0  0
   -3.5970   -5.4050   -3.0860 H   0  0  0  0  0  0  0  0  0  0  0  0
   -2.2240   -7.6060   -3.4820 C   0  0  0  0  0  3  0  0  0  0  0  0
   -1.1400   -8.3880   -3.6470 O   0  0  0  0  0  0  0  0  0  0  0  0
   -1.1020   -8.9900   -4.3640 H   0  0  0  0  0  0  0  0  0  0  0  0
   -3.2530   -7.7030   -4.3470 O   0  0  0  0  0  0  0  0  0  0  0  0
   -4.0100   -7.1610   -4.2370 H   0  0  0  0  0  0  0  0  0  0  0  0
  1 12  1  0  0  0  0
  2  1  1  1  0  0  0
  2  3  1  0  0  0  0
  3  5  1  0  0  0  0
  3  4  1  0  0  0  0
  5  6  2  0  0  0  0
  7 14  1  6  0  0  0
  7  5  1  0  0  0  0
  8  7  1  0  0  0  0
  9  8  2  0  0  0  0
 10  8  1  0  0  0  0
 10  2  1  0  0  0  0
 11  1  1  0  0  0  0
 13 10  1  0  0  0  0
 14 15  1  0  0  0  0
 16 15  1  0  0  0  0
 17 16  1  6  0  0  0
 17 18  1  0  0  0  0
 19 18  1  0  0  0  0
 20 17  1  0  0  0  0
 21 20  1  0  0  0  0
 22 21  1  0  0  0  0
 23 24  1  0  0  0  0
 23 20  1  0  0  0  0
M  END
>  <REMARK>
  8 active torsions:
  status: ('A' for Active; 'I' for Inactive)
       I    between atoms: N_1  and  C_2 
    1  A    between atoms: C_7  and  C_8 
    2  A    between atoms: C_8  and  C_9 
    3  A    between atoms: C_9  and  C_10 
    4  A    between atoms: C_10  and  C_11 
    5  A    between atoms: C_11  and  O_12 
    6  A    between atoms: C_11  and  C_13 
    7  A    between atoms: C_13  and  O_14 
    8  A    between atoms: C_13  and  O_15 

>  <TORSDO>
F 8

$$$$
C:\Users\siddh\.mgltools\PyRx\Ligands\ZINC000039438675_uff_E=105.30.pdbqt
 OpenBabel04182118313D

 24 24  0  0  1  0  0  0  0  0999 V2000
   -0.0140    1.5120    0.0020 N   0  0  0  0  0  0  0  0  0  0  0  0
   -0.0020    0.0970    0.0190 C   0  0  2  0  0  3  0  0  0  0  0  0
   -1.1210   -0.5400    0.0840 N   0  0  0  0  0  0  0  0  0  0  0  0
   -1.9840    0.0020    0.1180 H   0  0  0  0  0  0  0  0  0  0  0  0
   -1.2110   -1.8910    0.1080 C   0  0  0  0  0  0  0  0  0  0  0  0
   -2.3150   -2.3970    0.2270 O   0  0  0  0  0  0  0  0  0  0  0  0
    0.0260   -2.7800    0.0190 C   0  0  2  0  0  3  0  0  0  0  0  0
    1.2900   -1.9520   -0.0040 C   0  0  0  0  0  0  0  0  0  0  0  0
    2.3760   -2.5130   -0.0130 O   0  0  0  0  0  0  0  0  0  0  0  0
    1.2380   -0.5990   -0.0090 N   0  0  0  0  0  0  0  0  0  0  0  0
    0.8710    2.0390   -0.0260 H   0  0  0  0  0  0  0  0  0  0  0  0
   -0.9080    2.0230    0.0230 H   0  0  0  0  0  0  0  0  0  0  0  0
    2.1170   -0.0600   -0.0290 H   0  0  0  0  0  0  0  0  0  0  0  0
   -0.0020   -3.6870   -1.2340 C   0  0  0  0  0  2  0  0  0  0  0  0
   -1.1140   -4.7380   -1.1700 C   0  0  0  0  0  2  0  0  0  0  0  0
   -1.1180   -5.6300   -2.4070 C   0  0  0  0  0  2  0  0  0  0  0  0
   -2.2430   -6.6740   -2.3020 C   0  0  2  0  0  3  0  0  0  0  0  0
   -2.0490   -7.5170   -1.1910 O   0  0  0  0  0  0  0  0  0  0  0  0
   -1.1540   -7.9390   -1.2810 H   0  0  0  0  0  0  0  0  0  0  0  0
   -2.3520   -7.4700   -3.5730 C   0  0  0  0  0  3  0  0  0  0  0  0
   -2.1890   -8.8060   -3.5620 O   0  0  0  0  0  0  0  0  0  0  0  0
   -2.2590   -9.2930   -4.3600 H   0  0  0  0  0  0  0  0  0  0  0  0
   -2.6270   -6.8410   -4.7320 O   0  0  0  0  0  0  0  0  0  0  0  0
   -2.7420   -5.9120   -4.7460 H   0  0  0  0  0  0  0  0  0  0  0  0
  1 12  1  0  0  0  0
  2  1  1  1  0  0  0
  2  3  1  0  0  0  0
  3  5  1  0  0  0  0
  3  4  1  0  0  0  0
  5  6  2  0  0  0  0
  7 14  1  6  0  0  0
  7  5  1  0  0  0  0
  8  7  1  0  0  0  0
  9  8  2  0  0  0  0
 10  8  1  0  0  0  0
 10  2  1  0  0  0  0
 11  1  1  0  0  0  0
 13 10  1  0  0  0  0
 14 15  1  0  0  0  0
 16 15  1  0  0  0  0
 17 16  1  6  0  0  0
 17 18  1  0  0  0  0
 19 18  1  0  0  0  0
 20 21  1  0  0  0  0
 20 17  1  0  0  0  0
 22 21  1  0  0  0  0
 23 20  1  0  0  0  0
 24 23  1  0  0  0  0
M  END
>  <REMARK>
  8 active torsions:
  status: ('A' for Active; 'I' for Inactive)
       I    between atoms: N_1  and  C_2 
    1  A    between atoms: C_7  and  C_8 
    2  A    between atoms: C_8  and  C_9 
    3  A    between atoms: C_9  and  C_10 
    4  A    between atoms: C_10  and  C_11 
    5  A    between atoms: C_11  and  O_12 
    6  A    between atoms: C_11  and  C_13 
    7  A    between atoms: C_13  and  O_14 
    8  A    between atoms: C_13  and  O_15 

>  <TORSDO>
F 8

$$$$
C:\Users\siddh\.mgltools\PyRx\Ligands\ZINC000039135820_uff_E=138.70.pdbqt
 OpenBabel04182118313D

 20 19  0  0  0  0  0  0  0  0999 V2000
    0.1460   -2.6180   -2.5610 C   0  0  0  0  0  0  0  0  0  0  0  0
    0.9320   -3.5040   -2.8590 O   0  0  0  0  0  0  0  0  0  0  0  0
   -0.6670   -2.0610   -3.5170 N   0  0  0  0  0  0  0  0  0  0  0  0
   -1.2920   -1.3010   -3.2170 H   0  0  0  0  0  0  0  0  0  0  0  0
    0.0720   -2.1340   -1.1040 C   0  0  0  0  0  0  0  0  0  0  0  0
    1.2630   -2.7150   -0.3020 C   0  0  0  0  0  1  0  0  0  0  0  0
   -1.2580   -2.6610   -0.5190 C   0  0  0  0  0  1  0  0  0  0  0  0
    0.1250   -0.6650   -1.0650 N   0  0  0  0  0  0  0  0  0  0  0  0
   -0.0180    0.0840    0.0710 C   0  0  0  0  0  0  0  0  0  0  0  0
    0.0190    1.5800   -0.0110 C   0  0  0  0  0  1  0  0  0  0  0  0
   -0.1920   -0.4450    1.1590 O   0  0  0  0  0  0  0  0  0  0  0  0
    0.2610   -0.1530   -1.9510 H   0  0  0  0  0  0  0  0  0  0  0  0
   -0.6900   -2.4780   -4.9330 C   0  0  0  0  0  0  0  0  0  0  0  0
    0.7220   -2.4120   -5.5620 C   0  0  0  0  0  1  0  0  0  0  0  0
   -1.2620   -3.9050   -5.0350 C   0  0  0  0  0  1  0  0  0  0  0  0
   -1.5850   -1.5570   -5.7610 C   0  0  0  0  0  3  0  0  0  0  0  0
   -2.2070   -0.4960   -5.2090 O   0  0  0  0  0  0  0  0  0  0  0  0
   -2.7510    0.0550   -5.7370 H   0  0  0  0  0  0  0  0  0  0  0  0
   -1.7450   -1.7900   -7.0800 O   0  0  0  0  0  0  0  0  0  0  0  0
   -1.3210   -2.5230   -7.4810 H   0  0  0  0  0  0  0  0  0  0  0  0
  1  5  1  0  0  0  0
  2  1  2  0  0  0  0
  3  4  1  0  0  0  0
  3  1  1  0  0  0  0
  5  8  1  0  0  0  0
  5  7  1  0  0  0  0
  5  6  1  0  0  0  0
  8  9  1  0  0  0  0
  9 11  2  0  0  0  0
 10  9  1  0  0  0  0
 12  8  1  0  0  0  0
 13  3  1  0  0  0  0
 14 13  1  0  0  0  0
 15 13  1  0  0  0  0
 16 17  1  0  0  0  0
 16 13  1  0  0  0  0
 18 17  1  0  0  0  0
 19 16  1  0  0  0  0
 20 19  1  0  0  0  0
M  END
>  <REMARK>
  6 active torsions:
  status: ('A' for Active; 'I' for Inactive)
       I    between atoms: C_2  and  N_4 
    1  A    between atoms: N_4  and  C_5 
    2  A    between atoms: C_5  and  C_8 
       I    between atoms: C_8  and  N_10 
    3  A    between atoms: N_10  and  C_11 
    4  A    between atoms: C_11  and  C_14 
    5  A    between atoms: C_14  and  O_15 
    6  A    between atoms: C_14  and  O_16 

>  <TORSDO>
F 6

$$$$
C:\Users\siddh\.mgltools\PyRx\Ligands\ZINC000039121203_uff_E=79.08.pdbqt
 OpenBabel04182118313D

 19 19  0  0  1  0  0  0  0  0999 V2000
   -1.1840   -0.6310    0.0120 C   0  0  2  0  0  3  0  0  0  0  0  0
   -1.2790   -2.0240    0.0100 C   0  0  0  0  0  3  0  0  0  0  0  0
   -2.5510   -2.6090    0.0180 C   0  0  0  0  0  0  0  0  0  0  0  0
   -3.6600   -1.8130    0.0270 N   0  0  0  0  0  0  0  0  0  0  0  0
   -4.5860   -2.2410    0.0330 H   0  0  0  0  0  0  0  0  0  0  0  0
   -3.5480   -0.4600    0.0280 C   0  0  2  0  0  3  0  0  0  0  0  0
   -2.3180    0.1140    0.0210 N   0  0  0  0  0  0  0  0  0  0  0  0
   -2.2440    1.1310    0.0220 H   0  0  0  0  0  0  0  0  0  0  0  0
   -4.6580    0.3120    0.0370 O   0  0  0  0  0  0  0  0  0  0  0  0
   -4.5840    1.6930    0.0380 C   0  0  0  0  0  2  0  0  0  0  0  0
   -5.9480    2.3060    0.0480 C   0  0  0  0  0  3  0  0  0  0  0  0
   -7.0500    1.5320    0.0550 O   0  0  0  0  0  0  0  0  0  0  0  0
   -7.9000    1.9270    0.0620 H   0  0  0  0  0  0  0  0  0  0  0  0
   -6.0730    3.6460    0.0500 O   0  0  0  0  0  0  0  0  0  0  0  0
   -5.3080    4.1880    0.0450 H   0  0  0  0  0  0  0  0  0  0  0  0
   -2.6700   -3.9580    0.0170 O   0  0  0  0  0  0  0  0  0  0  0  0
   -3.8890   -4.6040    0.0250 C   0  0  0  0  0  1  0  0  0  0  0  0
    0.0270   -0.0240    0.0040 O   0  0  0  0  0  0  0  0  0  0  0  0
    0.1560    1.3520    0.0080 C   0  0  0  0  0  1  0  0  0  0  0  0
  1 18  1  6  0  0  0
  1  7  1  0  0  0  0
  2  1  1  0  0  0  0
  2  3  2  0  0  0  0
  3  4  1  0  0  0  0
  4  6  1  0  0  0  0
  4  5  1  0  0  0  0
  6  9  1  1  0  0  0
  7  8  1  0  0  0  0
  7  6  1  0  0  0  0
  9 10  1  0  0  0  0
 10 11  1  0  0  0  0
 11 14  1  0  0  0  0
 11 12  1  0  0  0  0
 12 13  1  0  0  0  0
 15 14  1  0  0  0  0
 16  3  1  0  0  0  0
 16 17  1  0  0  0  0
 18 19  1  0  0  0  0
M  END
>  <REMARK>
  7 active torsions:
  status: ('A' for Active; 'I' for Inactive)
    1  A    between atoms: O_2  and  C_3 
    2  A    between atoms: C_5  and  O_6 
    3  A    between atoms: C_10  and  O_11 
    4  A    between atoms: O_11  and  C_12 
    5  A    between atoms: C_12  and  C_13 
    6  A    between atoms: C_13  and  O_14 
    7  A    between atoms: C_13  and  O_15 

>  <TORSDO>
F 7

$$$$
C:\Users\siddh\.mgltools\PyRx\Ligands\ZINC000038951971_uff_E=261.40.pdbqt
 OpenBabel04182118313D

 20 20  0  0  0  0  0  0  0  0999 V2000
    0.0720   -0.1350    0.0010 O   0  0  0  0  0  0  0  0  0  0  0  0
    0.0180    1.2120    0.0080 C   0  0  0  0  0  3  0  0  0  0  0  0
    0.1750   -1.0660   -0.0120 H   0  0  0  0  0  0  0  0  0  0  0  0
    1.1600    1.9230    0.0040 O   0  0  0  0  0  0  0  0  0  0  0  0
    1.1300    2.8590    0.0090 H   0  0  0  0  0  0  0  0  0  0  0  0
   -1.2980    1.9330    0.0180 C   0  0  0  0  0  2  0  0  0  0  0  0
   -2.4930    0.9730    0.0190 C   0  0  0  0  0  2  0  0  0  0  0  0
   -3.8070    1.7090    0.0250 C   0  0  0  0  0  0  0  0  0  0  0  0
   -3.8290    2.9330    0.0320 O   0  0  0  0  0  0  0  0  0  0  0  0
   -4.9660    1.0060    0.0250 N   0  0  0  0  0  0  0  0  0  0  0  0
   -4.9340   -0.0250    0.0230 H   0  0  0  0  0  0  0  0  0  0  0  0
   -6.2430    1.6890    0.0330 C   0  0  0  0  0  2  0  0  0  0  0  0
   -7.3970    0.6910    0.0570 C   0  0  0  0  0  2  0  0  0  0  0  0
   -8.7000    1.4220    0.0740 C   0  0  0  0  0  0  0  0  0  0  0  0
   -9.0460    2.3330    1.0060 N   0  0  0  0  0  0  0  0  0  0  0  0
  -10.2760    2.7470    0.6410 C   0  0  0  0  0  2  0  0  0  0  0  0
   -8.4980    2.6400    1.8100 H   0  0  0  0  0  0  0  0  0  0  0  0
  -10.7070    2.1240   -0.4740 N   0  0  0  0  0  0  0  0  0  0  0  0
   -9.7200    1.2920   -0.8370 C   0  0  0  0  0  3  0  0  0  0  0  0
  -11.6220    2.2620   -0.9570 H   0  0  0  0  0  0  0  0  0  0  0  0
  1  2  1  0  0  0  0
  2  6  1  0  0  0  0
  3  1  1  0  0  0  0
  4  2  1  0  0  0  0
  4  5  1  0  0  0  0
  6  7  1  0  0  0  0
  7  8  1  0  0  0  0
  8 10  1  0  0  0  0
  8  9  2  0  0  0  0
 10 12  1  0  0  0  0
 11 10  1  0  0  0  0
 12 13  1  0  0  0  0
 13 14  1  0  0  0  0
 14 15  1  0  0  0  0
 15 17  1  0  0  0  0
 16 15  1  0  0  0  0
 18 16  1  0  0  0  0
 19 18  1  0  0  0  0
 19 14  2  0  0  0  0
 20 18  1  0  0  0  0
M  END
>  <REMARK>
  7 active torsions:
  status: ('A' for Active; 'I' for Inactive)
    1  A    between atoms: C_2  and  O_3 
    2  A    between atoms: C_2  and  C_4 
    3  A    between atoms: C_4  and  C_5 
    4  A    between atoms: C_5  and  C_6 
       I    between atoms: C_6  and  N_8 
    5  A    between atoms: N_8  and  C_9 
    6  A    between atoms: C_9  and  C_10 
    7  A    between atoms: C_10  and  C_11 

>  <TORSDO>
F 7

$$$$
C:\Users\siddh\.mgltools\PyRx\Ligands\ZINC000037834707_uff_E=1360.02.pdbqt
 OpenBabel04182118313D

 21 21  0  0  1  0  0  0  0  0999 V2000
   -1.4430   -1.9760   -0.0340 N   0  0  0  0  0  0  0  0  0  0  0  0
   -1.4260   -2.5920   -1.2660 C   0  0  0  0  0  0  0  0  0  0  0  0
   -1.3840   -1.9080   -2.2830 O   0  0  0  0  0  0  0  0  0  0  0  0
   -1.4000   -0.5180    0.0620 C   0  0  0  0  0  2  0  0  0  0  0  0
    0.0380    0.0360   -0.0300 C   0  0  0  0  0  3  0  0  0  0  0  0
   -0.0030    1.5690   -0.0160 C   0  0  0  0  0  1  0  0  0  0  0  0
    0.9030   -0.4620    1.1390 C   0  0  0  0  0  1  0  0  0  0  0  0
   -1.5010   -2.7540    1.2050 C   0  0  0  0  0  2  0  0  0  0  0  0
   -2.8710   -3.3150    1.4780 C   0  0  0  0  0  0  0  0  0  0  0  0
   -3.0870   -4.0260    2.6080 N   0  0  0  0  0  0  0  0  0  0  0  0
   -2.3150   -4.1990    3.2700 H   0  0  0  0  0  0  0  0  0  0  0  0
   -4.0250   -4.3920    2.8260 H   0  0  0  0  0  0  0  0  0  0  0  0
   -3.7950   -3.1040    0.7060 O   0  0  0  0  0  0  0  0  0  0  0  0
   -1.4400   -4.1120   -1.3860 C   0  0  2  0  0  3  0  0  0  0  0  0
   -1.3750   -4.5690   -2.8560 C   0  0  2  0  0  3  0  0  0  0  0  0
   -2.6480   -4.7690   -2.0430 C   0  0  0  0  0  2  0  0  0  0  0  0
   -0.7980   -5.9250   -3.1770 C   0  0  0  0  0  3  0  0  0  0  0  0
   -0.7070   -6.3190   -4.4610 O   0  0  0  0  0  0  0  0  0  0  0  0
   -0.3500   -7.1600   -4.6690 H   0  0  0  0  0  0  0  0  0  0  0  0
   -0.3600   -6.7450   -2.2010 O   0  0  0  0  0  0  0  0  0  0  0  0
   -0.4200   -6.4800   -1.3040 H   0  0  0  0  0  0  0  0  0  0  0  0
  1  4  1  0  0  0  0
  1  8  1  0  0  0  0
  2  1  1  0  0  0  0
  3  2  2  0  0  0  0
  5  6  1  0  0  0  0
  5  4  1  0  0  0  0
  5  7  1  0  0  0  0
  8  9  1  0  0  0  0
  9 10  1  0  0  0  0
 10 12  1  0  0  0  0
 10 11  1  0  0  0  0
 13  9  2  0  0  0  0
 14  2  1  6  0  0  0
 15 17  1  1  0  0  0
 15 16  1  0  0  0  0
 15 14  1  0  0  0  0
 16 14  1  0  0  0  0
 17 20  1  0  0  0  0
 18 17  1  0  0  0  0
 19 18  1  0  0  0  0
 20 21  1  0  0  0  0
M  END
>  <REMARK>
  8 active torsions:
  status: ('A' for Active; 'I' for Inactive)
    1  A    between atoms: C_2  and  C_4 
    2  A    between atoms: C_4  and  N_5 
    3  A    between atoms: N_5  and  C_6 
       I    between atoms: N_5  and  C_10 
    4  A    between atoms: C_6  and  C_7 
       I    between atoms: C_7  and  N_8 
    5  A    between atoms: C_10  and  C_12 
    6  A    between atoms: C_14  and  C_15 
    7  A    between atoms: C_15  and  O_16 
    8  A    between atoms: C_15  and  O_17 

>  <TORSDO>
F 8

$$$$
C:\Users\siddh\.mgltools\PyRx\Ligands\ZINC000037655543_uff_E=594.41.pdbqt
 OpenBabel04182118313D

 18 18  0  0  1  0  0  0  0  0999 V2000
   -1.2420   -3.4450    0.3530 N   0  0  0  0  0  0  0  0  0  0  0  0
    0.2200   -3.5770    0.4220 C   0  0  0  0  0  2  0  0  0  0  0  0
    0.5630   -4.9830    0.9280 C   0  0  0  0  0  2  0  0  0  0  0  0
   -0.0720   -5.2120    2.3060 C   0  0  0  0  0  2  0  0  0  0  0  0
   -1.5940   -4.9630    2.2430 C   0  0  2  0  0  3  0  0  0  0  0  0
   -1.8590   -3.5480    1.6850 C   0  0  0  0  0  2  0  0  0  0  0  0
   -1.7720   -2.0000   -0.5410 S   0  0  0  0  0  0  0  0  0  0  0  0
   -3.2870   -2.1110   -0.7630 O   0  0  0  0  0  0  0  0  0  0  0  0
   -1.2110   -2.0600   -1.9710 O   0  0  0  0  0  0  0  0  0  0  0  0
   -1.4420   -0.4010    0.1580 N   0  0  0  0  0  0  0  0  0  0  0  0
   -1.7770   -0.3590    1.1480 H   0  0  0  0  0  0  0  0  0  0  0  0
   -0.0260   -0.0450    0.0750 C   0  0  0  0  0  2  0  0  0  0  0  0
    0.1300    1.4650    0.2020 C   0  0  0  0  0  1  0  0  0  0  0  0
   -2.2600   -5.1470    3.5860 C   0  0  0  0  0  3  0  0  0  0  0  0
   -1.5370   -5.4810    4.6770 O   0  0  0  0  0  0  0  0  0  0  0  0
   -1.9620   -5.5920    5.5050 H   0  0  0  0  0  0  0  0  0  0  0  0
   -3.5920   -5.0000    3.6980 O   0  0  0  0  0  0  0  0  0  0  0  0
   -4.1030   -4.7690    2.9470 H   0  0  0  0  0  0  0  0  0  0  0  0
  1  2  1  0  0  0  0
  1  6  1  0  0  0  0
  2  3  1  0  0  0  0
  3  4  1  0  0  0  0
  5  4  1  0  0  0  0
  5 14  1  1  0  0  0
  6  5  1  0  0  0  0
  7 10  1  0  0  0  0
  7  1  1  0  0  0  0
  8  7  2  0  0  0  0
  9  7  2  0  0  0  0
 10 11  1  0  0  0  0
 12 10  1  0  0  0  0
 12 13  1  0  0  0  0
 14 17  1  0  0  0  0
 14 15  1  0  0  0  0
 15 16  1  0  0  0  0
 18 17  1  0  0  0  0
M  END
>  <REMARK>
  6 active torsions:
  status: ('A' for Active; 'I' for Inactive)
    1  A    between atoms: C_2  and  N_3 
    2  A    between atoms: N_3  and  S_4 
    3  A    between atoms: S_4  and  N_7 
    4  A    between atoms: C_11  and  C_12 
    5  A    between atoms: C_12  and  O_13 
    6  A    between atoms: C_12  and  O_14 

>  <TORSDO>
F 6

$$$$
C:\Users\siddh\.mgltools\PyRx\Ligands\ZINC000037655531_uff_E=591.40.pdbqt
 OpenBabel04182118313D

 17 17  0  0  0  0  0  0  0  0999 V2000
   -1.7120   -0.0970   -1.5410 N   0  0  0  0  0  0  0  0  0  0  0  0
   -2.9150    0.7420   -1.6100 C   0  0  0  0  0  2  0  0  0  0  0  0
   -2.8590    1.5530   -2.9070 C   0  0  0  0  0  2  0  0  0  0  0  0
   -2.7690    0.6110   -4.1300 C   0  0  0  0  0  3  0  0  0  0  0  0
   -1.5880   -0.3660   -3.9550 C   0  0  0  0  0  2  0  0  0  0  0  0
   -1.6910   -1.0990   -2.6140 C   0  0  0  0  0  2  0  0  0  0  0  0
   -1.4330   -0.7850    0.0740 S   0  0  0  0  0  0  0  0  0  0  0  0
   -1.3790   -2.3200    0.0150 O   0  0  0  0  0  0  0  0  0  0  0  0
   -2.5860   -0.4410    1.0320 O   0  0  0  0  0  0  0  0  0  0  0  0
    0.0870   -0.1790    0.7520 N   0  0  0  0  0  0  0  0  0  0  0  0
    0.1810    1.2580    0.4990 C   0  0  0  0  0  1  0  0  0  0  0  0
    0.8690   -0.6490    0.2380 H   0  0  0  0  0  0  0  0  0  0  0  0
   -2.6050    1.3890   -5.4160 C   0  0  0  0  0  3  0  0  0  0  0  0
   -2.5370    0.7290   -6.5910 O   0  0  0  0  0  0  0  0  0  0  0  0
   -2.4350    1.2060   -7.3910 H   0  0  0  0  0  0  0  0  0  0  0  0
   -2.5130    2.7320   -5.4080 O   0  0  0  0  0  0  0  0  0  0  0  0
   -2.5590    3.2000   -4.5980 H   0  0  0  0  0  0  0  0  0  0  0  0
  1  7  1  0  0  0  0
  2  1  1  0  0  0  0
  3  2  1  0  0  0  0
  4  5  1  0  0  0  0
  4  3  1  0  0  0  0
  5  6  1  0  0  0  0
  6  1  1  0  0  0  0
  7 10  1  0  0  0  0
  7  9  2  0  0  0  0
  8  7  2  0  0  0  0
 11 10  1  0  0  0  0
 12 10  1  0  0  0  0
 13 16  1  0  0  0  0
 13  4  1  0  0  0  0
 14 13  1  0  0  0  0
 15 14  1  0  0  0  0
 16 17  1  0  0  0  0
M  END
>  <REMARK>
  5 active torsions:
  status: ('A' for Active; 'I' for Inactive)
    1  A    between atoms: N_2  and  S_3 
    2  A    between atoms: S_3  and  N_6 
    3  A    between atoms: C_9  and  C_10 
    4  A    between atoms: C_10  and  O_11 
    5  A    between atoms: C_10  and  O_12 

>  <TORSDO>
F 5

$$$$
C:\Users\siddh\.mgltools\PyRx\Ligands\ZINC000037518428_uff_E=1451.61.pdbqt
 OpenBabel04182118313D

 19 19  0  0  1  0  0  0  0  0999 V2000
   -0.4990   -2.5440    1.2250 N   0  0  0  0  0  0  0  0  0  0  0  0
    0.8690   -2.7160    1.2770 C   0  0  0  0  0  0  0  0  0  0  0  0
    1.3780   -3.1940    2.2820 O   0  0  0  0  0  0  0  0  0  0  0  0
    1.7850   -2.3030    0.1230 C   0  0  1  0  0  3  0  0  0  0  0  0
    3.2920   -2.5960    0.2450 C   0  0  1  0  0  3  0  0  0  0  0  0
    2.3760   -3.5420   -0.5240 C   0  0  0  0  0  2  0  0  0  0  0  0
    4.0380   -1.5390   -0.5150 C   0  0  0  0  0  3  0  0  0  0  0  0
    4.8560   -1.8860   -1.5270 O   0  0  0  0  0  0  0  0  0  0  0  0
    5.3220   -1.2250   -2.0010 H   0  0  0  0  0  0  0  0  0  0  0  0
    3.9200   -0.2440   -0.1650 O   0  0  0  0  0  0  0  0  0  0  0  0
    3.3510    0.0010    0.5380 H   0  0  0  0  0  0  0  0  0  0  0  0
   -1.1680   -2.0340    0.0310 C   0  0  0  0  0  2  0  0  0  0  0  0
   -1.2780   -0.5090    0.0430 C   0  0  0  0  0  2  0  0  0  0  0  0
    0.0070    0.0680    0.0710 O   0  0  0  0  0  0  0  0  0  0  0  0
   -0.1050    1.4690    0.0310 C   0  0  0  0  0  1  0  0  0  0  0  0
   -1.3310   -2.9260    2.3680 C   0  0  0  0  0  2  0  0  0  0  0  0
   -1.6410   -4.4260    2.3760 C   0  0  0  0  0  2  0  0  0  0  0  0
   -0.4560   -5.1770    2.5100 O   0  0  0  0  0  0  0  0  0  0  0  0
   -0.7740   -6.5500    2.4860 C   0  0  0  0  0  1  0  0  0  0  0  0
  1  2  1  0  0  0  0
  1 16  1  0  0  0  0
  2  3  2  0  0  0  0
  4  5  1  0  0  0  0
  4  2  1  1  0  0  0
  5  7  1  6  0  0  0
  6  4  1  0  0  0  0
  6  5  1  0  0  0  0
  7 10  1  0  0  0  0
  8  7  1  0  0  0  0
  9  8  1  0  0  0  0
 10 11  1  0  0  0  0
 12 13  1  0  0  0  0
 12  1  1  0  0  0  0
 13 14  1  0  0  0  0
 15 14  1  0  0  0  0
 16 17  1  0  0  0  0
 17 18  1  0  0  0  0
 19 18  1  0  0  0  0
M  END
>  <REMARK>
  10 active torsions:
  status: ('A' for Active; 'I' for Inactive)
    1  A    between atoms: O_2  and  C_3 
    2  A    between atoms: C_3  and  C_4 
    3  A    between atoms: C_4  and  N_5 
    4  A    between atoms: N_5  and  C_6 
       I    between atoms: N_5  and  C_10 
    5  A    between atoms: C_6  and  C_7 
    6  A    between atoms: C_7  and  O_8 
    7  A    between atoms: C_10  and  C_12 
    8  A    between atoms: C_14  and  C_15 
    9  A    between atoms: C_15  and  O_16 
   10  A    between atoms: C_15  and  O_17 

>  <TORSDO>
F 10

$$$$
C:\Users\siddh\.mgltools\PyRx\Ligands\ZINC000037518426_uff_E=1472.90.pdbqt
 OpenBabel04182118313D

 19 19  0  0  1  0  0  0  0  0999 V2000
    4.6770   -3.6870    1.7310 N   0  0  0  0  0  0  0  0  0  0  0  0
    4.6330   -2.4480    1.1200 C   0  0  0  0  0  0  0  0  0  0  0  0
    5.3640   -1.5540    1.5220 O   0  0  0  0  0  0  0  0  0  0  0  0
    3.7130   -2.1590   -0.0710 C   0  0  1  0  0  3  0  0  0  0  0  0
    2.6070   -1.1610    0.2830 C   0  0  2  0  0  3  0  0  0  0  0  0
    3.6950   -0.7670   -0.7130 C   0  0  0  0  0  2  0  0  0  0  0  0
    2.6670   -0.3020    1.5270 C   0  0  0  0  0  3  0  0  0  0  0  0
    3.5370    0.7220    1.6360 O   0  0  0  0  0  0  0  0  0  0  0  0
    3.5550    1.2400    2.4170 H   0  0  0  0  0  0  0  0  0  0  0  0
    1.8160   -0.5520    2.5380 O   0  0  0  0  0  0  0  0  0  0  0  0
    1.2070   -1.2610    2.4740 H   0  0  0  0  0  0  0  0  0  0  0  0
    3.7870   -4.7830    1.3490 C   0  0  0  0  0  2  0  0  0  0  0  0
    2.4420   -4.7060    2.0800 C   0  0  0  0  0  2  0  0  0  0  0  0
    1.7490   -3.5320    1.7270 O   0  0  0  0  0  0  0  0  0  0  0  0
    0.5470   -3.4600    2.4600 C   0  0  0  0  0  1  0  0  0  0  0  0
    5.6270   -3.9300    2.8180 C   0  0  0  0  0  2  0  0  0  0  0  0
    6.9880   -4.3660    2.2730 C   0  0  0  0  0  2  0  0  0  0  0  0
    7.5470   -3.3390    1.4860 O   0  0  0  0  0  0  0  0  0  0  0  0
    8.7750   -3.7780    0.9540 C   0  0  0  0  0  1  0  0  0  0  0  0
  1 16  1  0  0  0  0
  2  3  2  0  0  0  0
  2  1  1  0  0  0  0
  4  5  1  0  0  0  0
  4  2  1  1  0  0  0
  5  7  1  1  0  0  0
  6  4  1  0  0  0  0
  6  5  1  0  0  0  0
  7  8  1  0  0  0  0
  7 10  1  0  0  0  0
  8  9  1  0  0  0  0
 11 10  1  0  0  0  0
 12  1  1  0  0  0  0
 12 13  1  0  0  0  0
 14 13  1  0  0  0  0
 14 15  1  0  0  0  0
 17 16  1  0  0  0  0
 18 17  1  0  0  0  0
 19 18  1  0  0  0  0
M  END
>  <REMARK>
  10 active torsions:
  status: ('A' for Active; 'I' for Inactive)
    1  A    between atoms: O_2  and  C_3 
    2  A    between atoms: C_3  and  C_4 
    3  A    between atoms: C_4  and  N_5 
    4  A    between atoms: N_5  and  C_6 
       I    between atoms: N_5  and  C_10 
    5  A    between atoms: C_6  and  C_7 
    6  A    between atoms: C_7  and  O_8 
    7  A    between atoms: C_10  and  C_12 
    8  A    between atoms: C_14  and  C_15 
    9  A    between atoms: C_15  and  O_16 
   10  A    between atoms: C_15  and  O_17 

>  <TORSDO>
F 10

$$$$
C:\Users\siddh\.mgltools\PyRx\Ligands\ZINC000037516594_uff_E=1357.70.pdbqt
 OpenBabel04182118313D

 21 22  0  0  1  0  0  0  0  0999 V2000
   -1.2560   -0.7610    0.0290 C   0  0  2  0  0  3  0  0  0  0  0  0
   -2.0870   -0.3750    1.2730 C   0  0  0  0  0  2  0  0  0  0  0  0
   -3.4070   -1.1540    1.2950 C   0  0  0  0  0  2  0  0  0  0  0  0
   -3.1210   -2.6550    1.3080 C   0  0  0  0  0  2  0  0  0  0  0  0
   -2.2880   -2.9970    0.1570 N   0  0  0  0  0  0  0  0  0  0  0  0
   -2.6630   -3.9540   -0.7600 C   0  0  0  0  0  0  0  0  0  0  0  0
   -1.9290   -4.2220   -1.7010 O   0  0  0  0  0  0  0  0  0  0  0  0
   -1.0120   -2.2900    0.0370 C   0  0  0  0  0  2  0  0  0  0  0  0
   -3.9650   -4.7220   -0.5890 C   0  0  2  0  0  3  0  0  0  0  0  0
   -4.1390   -5.8430   -1.6230 C   0  0  2  0  0  3  0  0  0  0  0  0
   -5.0100   -4.5920   -1.6900 C   0  0  0  0  0  2  0  0  0  0  0  0
   -5.0070   -7.0200   -1.2470 C   0  0  0  0  0  3  0  0  0  0  0  0
   -5.1850   -8.0210   -2.1280 O   0  0  0  0  0  0  0  0  0  0  0  0
   -5.7220   -8.7550   -1.9020 H   0  0  0  0  0  0  0  0  0  0  0  0
   -5.5920   -7.0970   -0.0340 O   0  0  0  0  0  0  0  0  0  0  0  0
   -5.4750   -6.4050    0.5880 H   0  0  0  0  0  0  0  0  0  0  0  0
    0.0450    0.0260   -0.0020 C   0  0  0  0  0  0  0  0  0  0  0  0
    0.0240    1.3790   -0.0480 N   0  0  0  0  0  0  0  0  0  0  0  0
    0.9060    1.9130   -0.0650 H   0  0  0  0  0  0  0  0  0  0  0  0
   -0.8680    1.8940   -0.0680 H   0  0  0  0  0  0  0  0  0  0  0  0
    1.1200   -0.5570    0.0110 O   0  0  0  0  0  0  0  0  0  0  0  0
  1 17  1  1  0  0  0
  1  8  1  0  0  0  0
  1  2  1  0  0  0  0
  2  3  1  0  0  0  0
  3  4  1  0  0  0  0
  5  4  1  0  0  0  0
  6  5  1  0  0  0  0
  7  6  2  0  0  0  0
  8  5  1  0  0  0  0
  9  6  1  6  0  0  0
 10 12  1  1  0  0  0
 10  9  1  0  0  0  0
 11 10  1  0  0  0  0
 11  9  1  0  0  0  0
 12 15  1  0  0  0  0
 13 14  1  0  0  0  0
 13 12  1  0  0  0  0
 15 16  1  0  0  0  0
 17 21  2  0  0  0  0
 18 17  1  0  0  0  0
 19 18  1  0  0  0  0
 20 18  1  0  0  0  0
M  END
>  <REMARK>
  5 active torsions:
  status: ('A' for Active; 'I' for Inactive)
       I    between atoms: N_1  and  C_2 
    1  A    between atoms: C_2  and  C_4 
       I    between atoms: N_8  and  C_9 
    2  A    between atoms: C_9  and  C_11 
    3  A    between atoms: C_13  and  C_14 
    4  A    between atoms: C_14  and  O_15 
    5  A    between atoms: C_14  and  O_16 

>  <TORSDO>
F 5

$$$$
C:\Users\siddh\.mgltools\PyRx\Ligands\ZINC000037516592_uff_E=1358.63.pdbqt
 OpenBabel04182118313D

 21 22  0  0  1  0  0  0  0  0999 V2000
   -7.6120    0.1480    1.0130 C   0  0  2  0  0  3  0  0  0  0  0  0
   -8.9780   -0.4630    0.6270 C   0  0  0  0  0  2  0  0  0  0  0  0
   -8.7840   -1.8030   -0.0900 C   0  0  0  0  0  2  0  0  0  0  0  0
   -8.0090   -2.7690    0.8080 C   0  0  0  0  0  2  0  0  0  0  0  0
   -6.7460   -2.1480    1.1950 N   0  0  0  0  0  0  0  0  0  0  0  0
   -5.5300   -2.7220    0.9050 C   0  0  0  0  0  0  0  0  0  0  0  0
   -4.4950   -2.1560    1.2310 O   0  0  0  0  0  0  0  0  0  0  0  0
   -6.8320   -0.8620    1.8900 C   0  0  0  0  0  2  0  0  0  0  0  0
   -5.4550   -4.0660    0.1780 C   0  0  1  0  0  3  0  0  0  0  0  0
   -4.9100   -4.1620   -1.2530 C   0  0  2  0  0  3  0  0  0  0  0  0
   -4.0070   -4.4860   -0.0680 C   0  0  0  0  0  2  0  0  0  0  0  0
   -4.8410   -2.7990   -1.8920 C   0  0  0  0  0  3  0  0  0  0  0  0
   -5.9670   -2.0890   -2.0900 O   0  0  0  0  0  0  0  0  0  0  0  0
   -5.9230   -1.2410   -2.4870 H   0  0  0  0  0  0  0  0  0  0  0  0
   -3.6590   -2.2990   -2.2960 O   0  0  0  0  0  0  0  0  0  0  0  0
   -2.8720   -2.7890   -2.1600 H   0  0  0  0  0  0  0  0  0  0  0  0
   -7.8090    1.4850    1.7110 C   0  0  0  0  0  0  0  0  0  0  0  0
   -8.4360    2.5030    1.0730 N   0  0  0  0  0  0  0  0  0  0  0  0
   -8.5750    3.4070    1.5470 H   0  0  0  0  0  0  0  0  0  0  0  0
   -8.7800    2.3900    0.1080 H   0  0  0  0  0  0  0  0  0  0  0  0
   -7.4030    1.6520    2.8520 O   0  0  0  0  0  0  0  0  0  0  0  0
  1 17  1  1  0  0  0
  1  8  1  0  0  0  0
  2  1  1  0  0  0  0
  3  2  1  0  0  0  0
  3  4  1  0  0  0  0
  4  5  1  0  0  0  0
  5  8  1  0  0  0  0
  6  5  1  0  0  0  0
  6  7  2  0  0  0  0
  9  6  1  1  0  0  0
 10 12  1  1  0  0  0
 10 11  1  0  0  0  0
 10  9  1  0  0  0  0
 11  9  1  0  0  0  0
 13 12  1  0  0  0  0
 14 13  1  0  0  0  0
 15 16  1  0  0  0  0
 15 12  1  0  0  0  0
 17 21  2  0  0  0  0
 18 19  1  0  0  0  0
 18 17  1  0  0  0  0
 20 18  1  0  0  0  0
M  END
>  <REMARK>
  5 active torsions:
  status: ('A' for Active; 'I' for Inactive)
       I    between atoms: N_1  and  C_2 
    1  A    between atoms: C_2  and  C_4 
       I    between atoms: N_8  and  C_9 
    2  A    between atoms: C_9  and  C_11 
    3  A    between atoms: C_13  and  C_14 
    4  A    between atoms: C_14  and  O_15 
    5  A    between atoms: C_14  and  O_16 

>  <TORSDO>
F 5

$$$$
C:\Users\siddh\.mgltools\PyRx\Ligands\ZINC000037456881_uff_E=1482.85.pdbqt
 OpenBabel04182118313D

 20 21  0  0  1  0  0  0  0  0999 V2000
    0.0080    1.5480   -0.0260 C   0  0  0  0  0  1  0  0  0  0  0  0
   -0.0730   -0.0010    0.0110 C   0  0  1  0  0  0  0  0  0  0  0  0
    0.6130   -0.4830    1.2230 N   0  0  0  0  0  0  0  0  0  0  0  0
    0.2200   -0.1470    2.4940 C   0  0  0  0  0  0  0  0  0  0  0  0
   -0.7490    0.5750    2.6730 O   0  0  0  0  0  0  0  0  0  0  0  0
    1.4370   -1.0930    1.1150 H   0  0  0  0  0  0  0  0  0  0  0  0
    0.9710   -0.6670    3.7000 C   0  0  1  0  0  3  0  0  0  0  0  0
    0.3840   -0.1120    4.8680 O   0  0  0  0  0  0  0  0  0  0  0  0
    1.0270   -0.6110    6.0200 C   0  0  0  0  0  2  0  0  0  0  0  0
    0.9200   -2.1380    6.0600 C   0  0  0  0  0  2  0  0  0  0  0  0
    1.5430   -2.6940    4.9190 O   0  0  0  0  0  0  0  0  0  0  0  0
    0.8980   -2.2100    3.7570 C   0  0  0  0  0  2  0  0  0  0  0  0
   -1.5370   -0.4450    0.0380 C   0  0  0  0  0  3  0  0  0  0  0  0
   -2.4010   -0.0130   -0.9000 O   0  0  0  0  0  0  0  0  0  0  0  0
   -3.2960   -0.2900   -0.8750 H   0  0  0  0  0  0  0  0  0  0  0  0
   -1.9830   -1.2830    0.9970 O   0  0  0  0  0  0  0  0  0  0  0  0
   -1.3960   -1.5940    1.6580 H   0  0  0  0  0  0  0  0  0  0  0  0
    0.7060   -0.5780   -1.2330 C   0  0  0  0  0  3  0  0  0  0  0  0
    0.2420    0.0050   -2.5750 C   0  0  0  0  0  2  0  0  0  0  0  0
    0.0450   -1.4700   -2.2900 C   0  0  0  0  0  2  0  0  0  0  0  0
  2  1  1  6  0  0  0
  2 13  1  0  0  0  0
  2  3  1  0  0  0  0
  3  4  1  0  0  0  0
  4  5  2  0  0  0  0
  6  3  1  0  0  0  0
  7  4  1  6  0  0  0
  7 12  1  0  0  0  0
  7  8  1  0  0  0  0
  8  9  1  0  0  0  0
  9 10  1  0  0  0  0
 11 10  1  0  0  0  0
 12 11  1  0  0  0  0
 13 16  1  0  0  0  0
 14 15  1  0  0  0  0
 14 13  1  0  0  0  0
 16 17  1  0  0  0  0
 18  2  1  0  0  0  0
 19 20  1  0  0  0  0
 19 18  1  0  0  0  0
 20 18  1  0  0  0  0
M  END
>  <REMARK>
  6 active torsions:
  status: ('A' for Active; 'I' for Inactive)
    1  A    between atoms: C_2  and  N_3 
    2  A    between atoms: C_2  and  C_12 
    3  A    between atoms: C_2  and  C_15 
       I    between atoms: N_3  and  C_4 
    4  A    between atoms: C_4  and  C_6 
    5  A    between atoms: C_12  and  O_13 
    6  A    between atoms: C_12  and  O_14 

>  <TORSDO>
F 6

$$$$
C:\Users\siddh\.mgltools\PyRx\Ligands\ZINC000037456880_uff_E=1484.87.pdbqt
 OpenBabel04182118313D

 20 21  0  0  1  0  0  0  0  0999 V2000
    0.0520    1.5990   -0.0740 C   0  0  0  0  0  1  0  0  0  0  0  0
    0.0320    0.0480   -0.0270 C   0  0  2  0  0  0  0  0  0  0  0  0
    0.7600   -0.4010    1.1720 N   0  0  0  0  0  0  0  0  0  0  0  0
    2.0860   -0.1260    1.3950 C   0  0  0  0  0  0  0  0  0  0  0  0
    2.7310    0.5140    0.5780 O   0  0  0  0  0  0  0  0  0  0  0  0
    0.2560   -0.9630    1.8750 H   0  0  0  0  0  0  0  0  0  0  0  0
    2.7840   -0.6300    2.6380 C   0  0  1  0  0  3  0  0  0  0  0  0
    4.1510   -0.2490    2.5690 O   0  0  0  0  0  0  0  0  0  0  0  0
    4.8320   -0.6690    3.7310 C   0  0  0  0  0  2  0  0  0  0  0  0
    4.1810   -0.0510    4.9710 C   0  0  0  0  0  2  0  0  0  0  0  0
    2.8320   -0.4630    5.0640 O   0  0  0  0  0  0  0  0  0  0  0  0
    2.1360   -0.0360    3.9080 C   0  0  0  0  0  2  0  0  0  0  0  0
    0.6970   -0.5240   -1.2780 C   0  0  0  0  0  3  0  0  0  0  0  0
    1.7310   -1.3840   -1.1810 O   0  0  0  0  0  0  0  0  0  0  0  0
    2.1300   -1.7270   -1.9560 H   0  0  0  0  0  0  0  0  0  0  0  0
    0.2560   -0.1780   -2.5030 O   0  0  0  0  0  0  0  0  0  0  0  0
   -0.4620    0.4180   -2.5920 H   0  0  0  0  0  0  0  0  0  0  0  0
   -1.4300   -0.5250    0.0580 C   0  0  0  0  0  3  0  0  0  0  0  0
   -2.3200   -0.2510   -1.1590 C   0  0  0  0  0  2  0  0  0  0  0  0
   -2.6500    0.3910    0.1820 C   0  0  0  0  0  2  0  0  0  0  0  0
  2  1  1  6  0  0  0
  2 18  1  0  0  0  0
  2  3  1  0  0  0  0
  3  4  1  0  0  0  0
  3  6  1  0  0  0  0
  5  4  2  0  0  0  0
  7  4  1  6  0  0  0
  7 12  1  0  0  0  0
  8  7  1  0  0  0  0
  8  9  1  0  0  0  0
  9 10  1  0  0  0  0
 10 11  1  0  0  0  0
 12 11  1  0  0  0  0
 13 14  1  0  0  0  0
 13  2  1  0  0  0  0
 15 14  1  0  0  0  0
 16 13  1  0  0  0  0
 17 16  1  0  0  0  0
 18 20  1  0  0  0  0
 19 18  1  0  0  0  0
 19 20  1  0  0  0  0
M  END
>  <REMARK>
  6 active torsions:
  status: ('A' for Active; 'I' for Inactive)
    1  A    between atoms: C_2  and  N_3 
    2  A    between atoms: C_2  and  C_12 
    3  A    between atoms: C_2  and  C_15 
       I    between atoms: N_3  and  C_4 
    4  A    between atoms: C_4  and  C_6 
    5  A    between atoms: C_12  and  O_13 
    6  A    between atoms: C_12  and  O_14 

>  <TORSDO>
F 6

$$$$
C:\Users\siddh\.mgltools\PyRx\Ligands\ZINC000037437722_uff_E=257.41.pdbqt
 OpenBabel04182118313D

 19 20  0  0  1  0  0  0  0  0999 V2000
   -1.3190    1.9360    0.0080 C   0  0  1  0  0  3  0  0  0  0  0  0
   -1.7460    2.3350   -1.4220 C   0  0  0  0  0  2  0  0  0  0  0  0
   -3.1410    2.9630   -1.4250 C   0  0  0  0  0  2  0  0  0  0  0  0
   -4.1460    1.9760   -0.8310 C   0  0  0  0  0  2  0  0  0  0  0  0
   -3.7240    1.6250    0.5980 C   0  0  0  0  0  2  0  0  0  0  0  0
   -2.3630    1.0670    0.6080 N   0  0  0  0  0  0  0  0  0  0  0  0
   -2.0930   -0.1640    1.1970 C   0  0  0  0  0  0  0  0  0  0  0  0
   -0.9380   -0.5300    1.3560 O   0  0  0  0  0  0  0  0  0  0  0  0
    0.0730    1.3450   -0.1000 C   0  0  0  0  0  3  0  0  0  0  0  0
    0.2930    0.2610   -0.8730 O   0  0  0  0  0  0  0  0  0  0  0  0
    0.5480    0.1370   -1.7660 H   0  0  0  0  0  0  0  0  0  0  0  0
    1.1040    1.9170    0.5500 O   0  0  0  0  0  0  0  0  0  0  0  0
    0.9580    2.6700    1.0880 H   0  0  0  0  0  0  0  0  0  0  0  0
   -3.1810   -1.1060    1.6900 C   0  0  2  0  0  3  0  0  0  0  0  0
   -2.5760   -2.1760    2.4020 O   0  0  0  0  0  0  0  0  0  0  0  0
   -3.5650   -3.0910    2.8260 C   0  0  0  0  0  2  0  0  0  0  0  0
   -4.3100   -3.6550    1.6120 C   0  0  0  0  0  2  0  0  0  0  0  0
   -4.9320   -2.6070    0.8970 O   0  0  0  0  0  0  0  0  0  0  0  0
   -3.9440   -1.6890    0.4720 C   0  0  0  0  0  2  0  0  0  0  0  0
  1  9  1  6  0  0  0
  1  6  1  0  0  0  0
  2  1  1  0  0  0  0
  3  2  1  0  0  0  0
  3  4  1  0  0  0  0
  4  5  1  0  0  0  0
  5  6  1  0  0  0  0
  6  7  1  0  0  0  0
  7  8  2  0  0  0  0
  9 12  1  0  0  0  0
 10  9  1  0  0  0  0
 11 10  1  0  0  0  0
 12 13  1  0  0  0  0
 14  7  1  6  0  0  0
 14 15  1  0  0  0  0
 15 16  1  0  0  0  0
 17 16  1  0  0  0  0
 18 17  1  0  0  0  0
 19 18  1  0  0  0  0
 19 14  1  0  0  0  0
M  END
>  <REMARK>
  4 active torsions:
  status: ('A' for Active; 'I' for Inactive)
    1  A    between atoms: O_1  and  C_2 
    2  A    between atoms: C_2  and  O_3 
    3  A    between atoms: C_2  and  C_4 
       I    between atoms: N_9  and  C_10 
    4  A    between atoms: C_10  and  C_12 

>  <TORSDO>
F 4

$$$$
C:\Users\siddh\.mgltools\PyRx\Ligands\ZINC000037437715_uff_E=262.10.pdbqt
 OpenBabel04182118313D

 19 20  0  0  1  0  0  0  0  0999 V2000
   -1.3300    1.9410    0.0090 C   0  0  1  0  0  3  0  0  0  0  0  0
   -1.6850    2.3630   -1.4340 C   0  0  0  0  0  2  0  0  0  0  0  0
   -3.0840    2.9740   -1.4930 C   0  0  0  0  0  2  0  0  0  0  0  0
   -4.0990    1.9540   -0.9840 C   0  0  0  0  0  2  0  0  0  0  0  0
   -3.7610    1.5640    0.4550 C   0  0  0  0  0  2  0  0  0  0  0  0
   -2.3880    1.0450    0.5490 N   0  0  0  0  0  0  0  0  0  0  0  0
   -2.1260   -0.1900    1.1370 C   0  0  0  0  0  0  0  0  0  0  0  0
   -0.9780   -0.6010    1.2180 O   0  0  0  0  0  0  0  0  0  0  0  0
    0.0840    1.3950   -0.0270 C   0  0  0  0  0  3  0  0  0  0  0  0
    0.3920    0.3490   -0.8230 O   0  0  0  0  0  0  0  0  0  0  0  0
    0.7290    0.2980   -1.6960 H   0  0  0  0  0  0  0  0  0  0  0  0
    1.0530    1.9800    0.7030 O   0  0  0  0  0  0  0  0  0  0  0  0
    0.8470    2.7060    1.2580 H   0  0  0  0  0  0  0  0  0  0  0  0
   -3.2110   -1.0910    1.7210 C   0  0  1  0  0  3  0  0  0  0  0  0
   -2.6170   -2.3320    2.0800 O   0  0  0  0  0  0  0  0  0  0  0  0
   -3.5980   -3.2100    2.5920 C   0  0  0  0  0  2  0  0  0  0  0  0
   -4.2710   -2.5910    3.8230 C   0  0  0  0  0  2  0  0  0  0  0  0
   -4.8630   -1.3540    3.4850 O   0  0  0  0  0  0  0  0  0  0  0  0
   -3.8630   -0.4810    2.9940 C   0  0  0  0  0  2  0  0  0  0  0  0
  1  9  1  6  0  0  0
  1  6  1  0  0  0  0
  2  1  1  0  0  0  0
  3  2  1  0  0  0  0
  3  4  1  0  0  0  0
  4  5  1  0  0  0  0
  5  6  1  0  0  0  0
  6  7  1  0  0  0  0
  7  8  2  0  0  0  0
  9 12  1  0  0  0  0
 10  9  1  0  0  0  0
 11 10  1  0  0  0  0
 12 13  1  0  0  0  0
 14  7  1  1  0  0  0
 14 15  1  0  0  0  0
 14 19  1  0  0  0  0
 15 16  1  0  0  0  0
 16 17  1  0  0  0  0
 18 17  1  0  0  0  0
 19 18  1  0  0  0  0
M  END
>  <REMARK>
  4 active torsions:
  status: ('A' for Active; 'I' for Inactive)
    1  A    between atoms: O_1  and  C_2 
    2  A    between atoms: C_2  and  O_3 
    3  A    between atoms: C_2  and  C_4 
       I    between atoms: N_9  and  C_10 
    4  A    between atoms: C_10  and  C_12 

>  <TORSDO>
F 4

$$$$
C:\Users\siddh\.mgltools\PyRx\Ligands\ZINC000037437134_uff_E=185.82.pdbqt
 OpenBabel04182118313D

 19 19  0  0  1  0  0  0  0  0999 V2000
    0.9740   -3.1600    2.1870 C   0  0  0  0  0  0  0  0  0  0  0  0
    0.9010   -2.3840    3.1270 O   0  0  0  0  0  0  0  0  0  0  0  0
    0.0970   -4.2320    2.0850 N   0  0  0  0  0  0  0  0  0  0  0  0
    0.2300   -5.2100    0.9970 C   0  0  0  0  0  2  0  0  0  0  0  0
   -1.0870   -5.3210    0.2240 C   0  0  0  0  0  2  0  0  0  0  0  0
   -2.2150   -5.7030    1.1840 C   0  0  0  0  0  2  0  0  0  0  0  0
   -2.3310   -4.6510    2.2890 C   0  0  0  0  0  2  0  0  0  0  0  0
   -0.9960   -4.5060    3.0520 C   0  0  2  0  0  3  0  0  0  0  0  0
    2.0550   -2.9020    1.1520 C   0  0  0  0  0  2  0  0  0  0  0  0
    2.8400   -1.7150    1.4910 N   0  0  0  0  0  0  0  0  0  0  0  0
    3.8860   -1.8050    2.3790 C   0  0  0  0  0  0  0  0  0  0  0  0
    4.6900   -0.5940    2.7780 C   0  0  0  0  0  1  0  0  0  0  0  0
    4.1830   -2.8860    2.8690 O   0  0  0  0  0  0  0  0  0  0  0  0
    2.4820   -0.4360    0.8920 C   0  0  0  0  0  1  0  0  0  0  0  0
   -1.2100   -3.4920    4.1570 C   0  0  0  0  0  3  0  0  0  0  0  0
   -1.0280   -3.8490    5.4420 O   0  0  0  0  0  0  0  0  0  0  0  0
   -1.1600   -3.2210    6.1260 H   0  0  0  0  0  0  0  0  0  0  0  0
   -1.6260   -2.2410    3.8670 O   0  0  0  0  0  0  0  0  0  0  0  0
   -1.7550   -1.9850    2.9750 H   0  0  0  0  0  0  0  0  0  0  0  0
  1  2  2  0  0  0  0
  3  1  1  0  0  0  0
  3  8  1  0  0  0  0
  4  3  1  0  0  0  0
  5  4  1  0  0  0  0
  5  6  1  0  0  0  0
  6  7  1  0  0  0  0
  7  8  1  0  0  0  0
  8 15  1  1  0  0  0
  9 10  1  0  0  0  0
  9  1  1  0  0  0  0
 10 11  1  0  0  0  0
 11 12  1  0  0  0  0
 11 13  2  0  0  0  0
 14 10  1  0  0  0  0
 15 16  1  0  0  0  0
 16 17  1  0  0  0  0
 18 15  1  0  0  0  0
 19 18  1  0  0  0  0
M  END
>  <REMARK>
  5 active torsions:
  status: ('A' for Active; 'I' for Inactive)
       I    between atoms: C_2  and  N_4 
    1  A    between atoms: N_4  and  C_6 
    2  A    between atoms: C_6  and  C_7 
       I    between atoms: C_7  and  N_9 
    3  A    between atoms: C_14  and  C_15 
    4  A    between atoms: C_15  and  O_16 
    5  A    between atoms: C_15  and  O_17 

>  <TORSDO>
F 5

$$$$
C:\Users\siddh\.mgltools\PyRx\Ligands\ZINC000037436480_uff_E=213.48.pdbqt
 OpenBabel04182118313D

 19 20  0  0  1  0  0  0  0  0999 V2000
   -1.2980    1.9330    0.0060 C   0  0  2  0  0  3  0  0  0  0  0  0
   -1.6280    2.3600   -1.4350 C   0  0  0  0  0  2  0  0  0  0  0  0
   -2.9710    3.0940   -1.4550 C   0  0  0  0  0  2  0  0  0  0  0  0
   -2.9040    4.3260   -0.5510 C   0  0  0  0  0  2  0  0  0  0  0  0
   -2.5030    3.9320    0.8010 N   0  0  0  0  0  0  0  0  0  0  0  0
   -3.2440    4.2460    1.9250 C   0  0  0  0  0  0  0  0  0  0  0  0
   -2.8830    3.8370    3.0200 O   0  0  0  0  0  0  0  0  0  0  0  0
   -1.2500    3.1770    0.9160 C   0  0  0  0  0  2  0  0  0  0  0  0
   -4.5020    5.1090    1.8700 C   0  0  1  0  0  3  0  0  0  0  0  0
   -5.1030    5.1480    3.1570 O   0  0  0  0  0  0  0  0  0  0  0  0
   -6.2810    5.9300    3.1120 C   0  0  0  0  0  2  0  0  0  0  0  0
   -5.9570    7.3590    2.6520 C   0  0  0  0  0  2  0  0  0  0  0  0
   -5.3500    7.3350    1.3780 O   0  0  0  0  0  0  0  0  0  0  0  0
   -4.1650    6.5660    1.4470 C   0  0  0  0  0  2  0  0  0  0  0  0
    0.0110    1.1900    0.0390 C   0  0  0  0  0  3  0  0  0  0  0  0
    0.0430   -0.1010    0.4210 O   0  0  0  0  0  0  0  0  0  0  0  0
    0.0970   -0.7880    1.0550 H   0  0  0  0  0  0  0  0  0  0  0  0
    1.1540    1.8050   -0.3250 O   0  0  0  0  0  0  0  0  0  0  0  0
    1.1380    2.7030   -0.5920 H   0  0  0  0  0  0  0  0  0  0  0  0
  1 15  1  6  0  0  0
  1  8  1  0  0  0  0
  2  1  1  0  0  0  0
  3  2  1  0  0  0  0
  3  4  1  0  0  0  0
  4  5  1  0  0  0  0
  5  8  1  0  0  0  0
  5  6  1  0  0  0  0
  6  7  2  0  0  0  0
  9  6  1  1  0  0  0
  9 10  1  0  0  0  0
 11 10  1  0  0  0  0
 12 11  1  0  0  0  0
 13 14  1  0  0  0  0
 13 12  1  0  0  0  0
 14  9  1  0  0  0  0
 15 16  1  0  0  0  0
 16 17  1  0  0  0  0
 18 15  1  0  0  0  0
 19 18  1  0  0  0  0
M  END
>  <REMARK>
  4 active torsions:
  status: ('A' for Active; 'I' for Inactive)
    1  A    between atoms: O_1  and  C_2 
    2  A    between atoms: C_2  and  O_3 
    3  A    between atoms: C_2  and  C_4 
       I    between atoms: N_8  and  C_9 
    4  A    between atoms: C_9  and  C_11 

>  <TORSDO>
F 4

$$$$
C:\Users\siddh\.mgltools\PyRx\Ligands\ZINC000037433961_uff_E=248.91.pdbqt
 OpenBabel04182118313D

 20 20  0  0  1  0  0  0  0  0999 V2000
    1.7170   -3.2490    2.3740 C   0  0  0  0  0  0  0  0  0  0  0  0
    1.1370   -3.7050    1.3960 O   0  0  0  0  0  0  0  0  0  0  0  0
    2.7470   -3.9450    2.9340 N   0  0  0  0  0  0  0  0  0  0  0  0
    3.2260   -3.5570    3.7620 H   0  0  0  0  0  0  0  0  0  0  0  0
    1.2760   -1.9190    2.9860 C   0  0  2  0  0  3  0  0  0  0  0  0
    0.0870   -1.3060    2.1970 C   0  0  0  0  0  2  0  0  0  0  0  0
    0.7480   -0.5400    1.1740 N   0  0  0  0  0  0  0  0  0  0  0  0
    2.0300   -0.2890    1.5070 C   0  0  0  0  0  0  0  0  0  0  0  0
    2.4160   -0.8830    2.8120 C   0  0  0  0  0  2  0  0  0  0  0  0
    2.7600    0.4470    0.8620 O   0  0  0  0  0  0  0  0  0  0  0  0
    0.0480   -0.0080    0.0070 C   0  0  0  0  0  3  0  0  0  0  0  0
   -0.0180    1.5250    0.0340 C   0  0  0  0  0  1  0  0  0  0  0  0
    0.6990   -0.5140   -1.2850 C   0  0  0  0  0  1  0  0  0  0  0  0
    3.1680   -5.2260    2.3960 C   0  0  0  0  0  2  0  0  0  0  0  0
    4.3430   -5.8100    3.1900 C   0  0  0  0  0  2  0  0  0  0  0  0
    4.7930   -7.1400    2.6470 C   0  0  0  0  0  3  0  0  0  0  0  0
    4.1810   -7.6990    1.5830 O   0  0  0  0  0  0  0  0  0  0  0  0
    4.4730   -8.5280    1.2570 H   0  0  0  0  0  0  0  0  0  0  0  0
    5.8210   -7.7830    3.2320 O   0  0  0  0  0  0  0  0  0  0  0  0
    6.2510   -7.4020    3.9710 H   0  0  0  0  0  0  0  0  0  0  0  0
  1  3  1  0  0  0  0
  2  1  2  0  0  0  0
  3  4  1  0  0  0  0
  5  1  1  6  0  0  0
  6  5  1  0  0  0  0
  7  8  1  0  0  0  0
  7  6  1  0  0  0  0
  8  9  1  0  0  0  0
  9  5  1  0  0  0  0
 10  8  2  0  0  0  0
 11 12  1  0  0  0  0
 11  7  1  0  0  0  0
 13 11  1  0  0  0  0
 14  3  1  0  0  0  0
 14 15  1  0  0  0  0
 16 15  1  0  0  0  0
 16 19  1  0  0  0  0
 17 16  1  0  0  0  0
 18 17  1  0  0  0  0
 19 20  1  0  0  0  0
M  END
>  <REMARK>
  7 active torsions:
  status: ('A' for Active; 'I' for Inactive)
    1  A    between atoms: C_2  and  N_4 
    2  A    between atoms: C_6  and  C_7 
       I    between atoms: C_7  and  N_9 
    3  A    between atoms: N_9  and  C_10 
    4  A    between atoms: C_10  and  C_11 
    5  A    between atoms: C_11  and  C_12 
    6  A    between atoms: C_12  and  O_13 
    7  A    between atoms: C_12  and  O_14 

>  <TORSDO>
F 7

$$$$
C:\Users\siddh\.mgltools\PyRx\Ligands\ZINC000037433960_uff_E=232.88.pdbqt
 OpenBabel04182118313D

 20 20  0  0  1  0  0  0  0  0999 V2000
    0.9250   -2.0870    4.4770 C   0  0  0  0  0  0  0  0  0  0  0  0
   -0.1950   -1.8200    4.8950 O   0  0  0  0  0  0  0  0  0  0  0  0
    1.8680   -2.5770    5.3260 N   0  0  0  0  0  0  0  0  0  0  0  0
    2.8050   -2.8130    4.9630 H   0  0  0  0  0  0  0  0  0  0  0  0
    1.2550   -1.8420    3.0250 C   0  0  1  0  0  3  0  0  0  0  0  0
    0.0860   -1.3100    2.1640 C   0  0  0  0  0  2  0  0  0  0  0  0
    0.7570   -0.5440    1.1520 N   0  0  0  0  0  0  0  0  0  0  0  0
    2.0370   -0.2860    1.4920 C   0  0  0  0  0  0  0  0  0  0  0  0
    2.4160   -0.8510    2.8100 C   0  0  0  0  0  2  0  0  0  0  0  0
    2.7700    0.4410    0.8410 O   0  0  0  0  0  0  0  0  0  0  0  0
    0.0600   -0.0120   -0.0150 C   0  0  0  0  0  3  0  0  0  0  0  0
   -0.0120    1.5210    0.0230 C   0  0  0  0  0  1  0  0  0  0  0  0
    0.7100   -0.5140   -1.3070 C   0  0  0  0  0  1  0  0  0  0  0  0
    1.5740   -2.7430    6.7370 C   0  0  0  0  0  2  0  0  0  0  0  0
    2.7720   -3.3110    7.5040 C   0  0  0  0  0  2  0  0  0  0  0  0
    2.4800   -3.4580    8.9740 C   0  0  0  0  0  3  0  0  0  0  0  0
    1.2840   -3.1000    9.4850 O   0  0  0  0  0  0  0  0  0  0  0  0
    1.1180   -3.1980   10.4020 H   0  0  0  0  0  0  0  0  0  0  0  0
    3.4270   -3.9510    9.7930 O   0  0  0  0  0  0  0  0  0  0  0  0
    4.2610   -4.2030    9.4470 H   0  0  0  0  0  0  0  0  0  0  0  0
  1  2  2  0  0  0  0
  1  3  1  0  0  0  0
  3 14  1  0  0  0  0
  4  3  1  0  0  0  0
  5  1  1  1  0  0  0
  6  5  1  0  0  0  0
  7  8  1  0  0  0  0
  7  6  1  0  0  0  0
  8  9  1  0  0  0  0
  9  5  1  0  0  0  0
 10  8  2  0  0  0  0
 11 12  1  0  0  0  0
 11  7  1  0  0  0  0
 13 11  1  0  0  0  0
 14 15  1  0  0  0  0
 15 16  1  0  0  0  0
 16 17  1  0  0  0  0
 16 19  1  0  0  0  0
 17 18  1  0  0  0  0
 20 19  1  0  0  0  0
M  END
>  <REMARK>
  7 active torsions:
  status: ('A' for Active; 'I' for Inactive)
    1  A    between atoms: C_2  and  N_4 
    2  A    between atoms: C_6  and  C_7 
       I    between atoms: C_7  and  N_9 
    3  A    between atoms: N_9  and  C_10 
    4  A    between atoms: C_10  and  C_11 
    5  A    between atoms: C_11  and  C_12 
    6  A    between atoms: C_12  and  O_13 
    7  A    between atoms: C_12  and  O_14 

>  <TORSDO>
F 7

$$$$
C:\Users\siddh\.mgltools\PyRx\Ligands\ZINC000037420956_uff_E=379.27.pdbqt
 OpenBabel04182118313D

 20 21  0  0  1  0  0  0  0  0999 V2000
    0.0610   -0.1480    0.1060 O   0  0  0  0  0  0  0  0  0  0  0  0
    0.0230    1.1990    0.0530 C   0  0  0  0  0  3  0  0  0  0  0  0
    0.1320   -1.0770    0.2050 H   0  0  0  0  0  0  0  0  0  0  0  0
    1.1830    1.8860    0.0650 O   0  0  0  0  0  0  0  0  0  0  0  0
    1.1730    2.8230    0.0290 H   0  0  0  0  0  0  0  0  0  0  0  0
   -1.3180    1.9170    0.0060 C   0  0  0  0  0  0  0  0  0  0  0  0
   -2.1520    1.5890    1.2680 C   0  0  0  0  0  2  0  0  0  0  0  0
   -3.6220    1.5510    0.8080 C   0  0  0  0  0  2  0  0  0  0  0  0
   -3.5950    1.9220   -0.6700 C   0  0  0  0  0  2  0  0  0  0  0  0
   -2.2350    1.4070   -1.1210 C   0  0  0  0  0  2  0  0  0  0  0  0
   -1.1210    3.3740   -0.1080 N   0  0  0  0  0  0  0  0  0  0  0  0
   -0.4430    3.9490   -1.1510 C   0  0  0  0  0  0  0  0  0  0  0  0
    0.0130    3.2550   -2.0480 O   0  0  0  0  0  0  0  0  0  0  0  0
   -1.4810    3.9860    0.6400 H   0  0  0  0  0  0  0  0  0  0  0  0
   -0.2170    5.4460   -1.1930 C   0  0  1  0  0  3  0  0  0  0  0  0
    0.6030    5.7530   -2.3110 O   0  0  0  0  0  0  0  0  0  0  0  0
    0.8070    7.1480   -2.3920 C   0  0  0  0  0  2  0  0  0  0  0  0
   -0.5400    7.8640   -2.5260 C   0  0  0  0  0  2  0  0  0  0  0  0
   -1.3460    7.5910   -1.3970 O   0  0  0  0  0  0  0  0  0  0  0  0
   -1.5620    6.1960   -1.3050 C   0  0  0  0  0  2  0  0  0  0  0  0
  1  3  1  0  0  0  0
  2  4  1  0  0  0  0
  2  1  1  0  0  0  0
  5  4  1  0  0  0  0
  6  2  1  0  0  0  0
  6  7  1  0  0  0  0
  8  7  1  0  0  0  0
  9  8  1  0  0  0  0
 10  9  1  0  0  0  0
 10  6  1  0  0  0  0
 11  6  1  0  0  0  0
 11 14  1  0  0  0  0
 12 11  1  0  0  0  0
 13 12  2  0  0  0  0
 15 12  1  6  0  0  0
 16 15  1  0  0  0  0
 17 16  1  0  0  0  0
 18 17  1  0  0  0  0
 18 19  1  0  0  0  0
 19 20  1  0  0  0  0
 20 15  1  0  0  0  0
M  END
>  <REMARK>
  4 active torsions:
  status: ('A' for Active; 'I' for Inactive)
    1  A    between atoms: C_2  and  O_3 
    2  A    between atoms: C_2  and  C_4 
    3  A    between atoms: C_4  and  N_5 
       I    between atoms: N_5  and  C_6 
    4  A    between atoms: C_6  and  C_8 

>  <TORSDO>
F 4

$$$$
C:\Users\siddh\.mgltools\PyRx\Ligands\ZINC000037414557_uff_E=668.49.pdbqt
 OpenBabel04182118313D

 20 20  0  0  1  0  0  0  0  0999 V2000
    0.1020   -0.2530    2.8430 S   0  0  0  0  0  0  0  0  0  0  0  0
   -0.6550    1.0660    3.0640 O   0  0  0  0  0  0  0  0  0  0  0  0
   -0.6610   -1.1860    3.7940 O   0  0  0  0  0  0  0  0  0  0  0  0
    0.0320   -0.8200    1.1370 C   0  0  0  0  0  0  0  0  0  0  0  0
   -0.0590   -0.0430   -0.0050 C   0  0  1  0  0  3  0  0  0  0  0  0
   -0.0880    1.4490   -0.0780 C   0  0  0  0  0  1  0  0  0  0  0  0
   -0.1120   -0.8470   -1.0860 N   0  0  0  0  0  0  0  0  0  0  0  0
   -0.0490   -2.1030   -0.6660 N   0  0  0  0  0  0  0  0  0  0  0  0
   -0.1870   -0.5430   -2.0560 H   0  0  0  0  0  0  0  0  0  0  0  0
   -0.0630   -3.2500   -1.5660 C   0  0  0  0  0  1  0  0  0  0  0  0
    0.0400   -2.1240    0.6830 C   0  0  0  0  0  0  0  0  0  0  0  0
    0.1310   -3.3580    1.5320 C   0  0  0  0  0  1  0  0  0  0  0  0
    1.6780   -0.0190    3.6140 N   0  0  0  0  0  0  0  0  0  0  0  0
    2.1420   -0.9530    3.6830 H   0  0  0  0  0  0  0  0  0  0  0  0
    2.4950    0.8750    2.7940 C   0  0  0  0  0  2  0  0  0  0  0  0
    3.8130    1.1590    3.4540 C   0  0  0  0  0  3  0  0  0  0  0  0
    4.1160    0.6200    4.6520 O   0  0  0  0  0  0  0  0  0  0  0  0
    4.9420    0.8050    5.0540 H   0  0  0  0  0  0  0  0  0  0  0  0
    4.7010    1.9670    2.8460 O   0  0  0  0  0  0  0  0  0  0  0  0
    4.4970    2.3450    2.0130 H   0  0  0  0  0  0  0  0  0  0  0  0
  1  2  2  0  0  0  0
  1 13  1  0  0  0  0
  1  3  2  0  0  0  0
  4  1  1  0  0  0  0
  5  6  1  6  0  0  0
  5  4  1  0  0  0  0
  7  8  1  0  0  0  0
  7  5  1  0  0  0  0
  8 11  1  0  0  0  0
  9  7  1  0  0  0  0
 10  8  1  0  0  0  0
 11  4  2  0  0  0  0
 11 12  1  0  0  0  0
 13 14  1  0  0  0  0
 15 16  1  0  0  0  0
 15 13  1  0  0  0  0
 16 17  1  0  0  0  0
 17 18  1  0  0  0  0
 19 16  1  0  0  0  0
 20 19  1  0  0  0  0
M  END
>  <REMARK>
  6 active torsions:
  status: ('A' for Active; 'I' for Inactive)
    1  A    between atoms: C_9  and  S_10 
    2  A    between atoms: S_10  and  N_13 
    3  A    between atoms: N_13  and  C_14 
    4  A    between atoms: C_14  and  C_15 
    5  A    between atoms: C_15  and  O_16 
    6  A    between atoms: C_15  and  O_17 

>  <TORSDO>
F 6

$$$$
C:\Users\siddh\.mgltools\PyRx\Ligands\ZINC000037374130_uff_E=178.00.pdbqt
 OpenBabel04182118313D

 18 18  0  0  1  0  0  0  0  0999 V2000
   -0.1050   -0.1520   -2.4470 N   0  0  0  0  0  0  0  0  0  0  0  0
    0.4870    0.7320   -3.4550 C   0  0  0  0  0  2  0  0  0  0  0  0
    0.0630    0.2820   -4.8500 C   0  0  0  0  0  2  0  0  0  0  0  0
   -1.3950    0.2810   -4.9330 N   0  0  0  0  0  0  0  0  0  0  0  0
   -2.1140   -0.2160   -3.8790 C   0  0  0  0  0  0  0  0  0  0  0  0
   -3.3230   -0.3800   -3.9650 O   0  0  0  0  0  0  0  0  0  0  0  0
   -1.4090   -0.5550   -2.6180 C   0  0  0  0  0  0  0  0  0  0  0  0
   -1.9880   -1.2070   -1.7600 O   0  0  0  0  0  0  0  0  0  0  0  0
    0.6960   -0.5350   -1.2710 C   0  0  1  0  0  3  0  0  0  0  0  0
    0.0940    0.0140    0.0440 C   0  0  0  0  0  2  0  0  0  0  0  0
   -0.0040    1.5390    0.0350 C   0  0  0  0  0  1  0  0  0  0  0  0
    0.9010   -2.0320   -1.1850 C   0  0  0  0  0  3  0  0  0  0  0  0
    0.3140   -2.8690   -2.0630 O   0  0  0  0  0  0  0  0  0  0  0  0
    0.4520   -3.7930   -1.9940 H   0  0  0  0  0  0  0  0  0  0  0  0
    1.7100   -2.5380   -0.2340 O   0  0  0  0  0  0  0  0  0  0  0  0
    2.1240   -1.9660    0.3820 H   0  0  0  0  0  0  0  0  0  0  0  0
   -2.0490    0.6580   -6.1800 C   0  0  0  0  0  2  0  0  0  0  0  0
   -2.1790   -0.5540   -7.0980 C   0  0  0  0  0  1  0  0  0  0  0  0
  1  9  1  0  0  0  0
  2  1  1  0  0  0  0
  3  2  1  0  0  0  0
  4  3  1  0  0  0  0
  4  5  1  0  0  0  0
  5  7  1  0  0  0  0
  6  5  2  0  0  0  0
  7  1  1  0  0  0  0
  7  8  2  0  0  0  0
  9 12  1  0  0  0  0
  9 10  1  1  0  0  0
 11 10  1  0  0  0  0
 12 15  1  0  0  0  0
 13 14  1  0  0  0  0
 13 12  1  0  0  0  0
 15 16  1  0  0  0  0
 17  4  1  0  0  0  0
 18 17  1  0  0  0  0
M  END
>  <REMARK>
  6 active torsions:
  status: ('A' for Active; 'I' for Inactive)
    1  A    between atoms: C_2  and  C_3 
    2  A    between atoms: C_3  and  C_4 
    3  A    between atoms: C_3  and  N_7 
    4  A    between atoms: C_4  and  O_5 
    5  A    between atoms: C_4  and  O_6 
    6  A    between atoms: N_10  and  C_11 

>  <TORSDO>
F 6

$$$$
C:\Users\siddh\.mgltools\PyRx\Ligands\ZINC000037358545_uff_E=373.53.pdbqt
 OpenBabel04182118313D

 19 20  0  0  1  0  0  0  0  0999 V2000
    0.0730   -3.3190   -1.5290 C   0  0  1  0  0  3  0  0  0  0  0  0
   -0.2400   -1.9320   -1.0180 C   0  0  0  0  0  0  0  0  0  0  0  0
   -0.6840   -0.8440   -1.7390 C   0  0  0  0  0  2  0  0  0  0  0  0
   -0.7920    0.1970   -0.8910 N   0  0  0  0  0  0  0  0  0  0  0  0
   -1.1970    1.5550   -1.2280 C   0  0  0  0  0  1  0  0  0  0  0  0
   -0.4510   -0.1820    0.3320 N   0  0  0  0  0  0  0  0  0  0  0  0
   -0.1120   -1.4840    0.2850 C   0  0  0  0  0  3  0  0  0  0  0  0
   -0.4470    0.4090    1.1630 H   0  0  0  0  0  0  0  0  0  0  0  0
    1.5670   -3.4900   -1.3320 C   0  0  0  0  0  3  0  0  0  0  0  0
    2.0600   -4.3750   -0.4430 O   0  0  0  0  0  0  0  0  0  0  0  0
    2.9870   -4.4650   -0.3380 H   0  0  0  0  0  0  0  0  0  0  0  0
    2.4190   -2.6980   -2.0110 O   0  0  0  0  0  0  0  0  0  0  0  0
    2.0880   -2.0780   -2.6320 H   0  0  0  0  0  0  0  0  0  0  0  0
   -0.7200   -4.3550   -0.8100 N   0  0  0  0  0  0  0  0  0  0  0  0
   -2.1770   -4.0990   -0.8890 C   0  0  0  0  0  2  0  0  0  0  0  0
   -2.9280   -5.1790   -0.0980 C   0  0  0  0  0  2  0  0  0  0  0  0
   -2.6600   -6.4660   -0.6210 O   0  0  0  0  0  0  0  0  0  0  0  0
   -1.2740   -6.7340   -0.5320 C   0  0  0  0  0  2  0  0  0  0  0  0
   -0.4750   -5.7140   -1.3500 C   0  0  0  0  0  2  0  0  0  0  0  0
  1  9  1  1  0  0  0
  1  2  1  0  0  0  0
  1 14  1  0  0  0  0
  2  7  2  0  0  0  0
  3  2  1  0  0  0  0
  3  4  1  0  0  0  0
  4  6  1  0  0  0  0
  5  4  1  0  0  0  0
  6  8  1  0  0  0  0
  7  6  1  0  0  0  0
  9 10  1  0  0  0  0
 10 11  1  0  0  0  0
 12  9  1  0  0  0  0
 13 12  1  0  0  0  0
 15 14  1  0  0  0  0
 15 16  1  0  0  0  0
 17 18  1  0  0  0  0
 17 16  1  0  0  0  0
 19 14  1  0  0  0  0
 19 18  1  0  0  0  0
M  END
>  <REMARK>
  5 active torsions:
  status: ('A' for Active; 'I' for Inactive)
    1  A    between atoms: C_4  and  C_5 
    2  A    between atoms: C_5  and  C_6 
    3  A    between atoms: C_5  and  N_9 
    4  A    between atoms: C_6  and  O_7 
    5  A    between atoms: C_6  and  O_8 

>  <TORSDO>
F 5

$$$$
C:\Users\siddh\.mgltools\PyRx\Ligands\ZINC000036983366_uff_E=701.56.pdbqt
 OpenBabel04182118313D

 19 19  0  0  1  0  0  0  0  0999 V2000
   -2.0920   -0.8630    1.4380 S   0  0  0  0  0  0  0  0  0  0  0  0
   -3.4340   -1.5590    1.1630 O   0  0  0  0  0  0  0  0  0  0  0  0
   -1.3160   -1.9790    2.1540 O   0  0  0  0  0  0  0  0  0  0  0  0
   -1.3230   -0.7070   -0.1550 N   0  0  0  0  0  0  0  0  0  0  0  0
   -1.9530   -0.2190   -0.8330 H   0  0  0  0  0  0  0  0  0  0  0  0
    0.0130   -0.0920   -0.0910 C   0  0  2  0  0  3  0  0  0  0  0  0
   -0.0580    1.4460   -0.0380 C   0  0  0  0  0  1  0  0  0  0  0  0
    0.8100   -0.5070   -1.2990 C   0  0  0  0  0  3  0  0  0  0  0  0
    2.0970   -0.1250   -1.4180 O   0  0  0  0  0  0  0  0  0  0  0  0
    2.5940   -0.3830   -2.1700 H   0  0  0  0  0  0  0  0  0  0  0  0
    0.2530   -1.2670   -2.2630 O   0  0  0  0  0  0  0  0  0  0  0  0
   -0.6410   -1.5370   -2.1880 H   0  0  0  0  0  0  0  0  0  0  0  0
   -2.2790    0.5960    2.4440 C   0  0  0  0  0  0  0  0  0  0  0  0
   -3.3320    1.4850    2.4480 C   0  0  0  0  0  2  0  0  0  0  0  0
   -3.0500    2.4790    3.3140 N   0  0  0  0  0  0  0  0  0  0  0  0
   -1.8650    2.2270    3.8520 N   0  0  0  0  0  0  0  0  0  0  0  0
   -3.6440    3.2830    3.5200 H   0  0  0  0  0  0  0  0  0  0  0  0
   -1.3670    1.0880    3.3430 C   0  0  0  0  0  3  0  0  0  0  0  0
   -1.1970    3.0990    4.8060 C   0  0  0  0  0  1  0  0  0  0  0  0
  1  3  2  0  0  0  0
  1 13  1  0  0  0  0
  2  1  2  0  0  0  0
  4  6  1  0  0  0  0
  4  1  1  0  0  0  0
  5  4  1  0  0  0  0
  6  7  1  6  0  0  0
  8  6  1  0  0  0  0
  9  8  1  0  0  0  0
 10  9  1  0  0  0  0
 11 12  1  0  0  0  0
 11  8  1  0  0  0  0
 13 14  1  0  0  0  0
 13 18  2  0  0  0  0
 14 15  1  0  0  0  0
 15 17  1  0  0  0  0
 15 16  1  0  0  0  0
 16 19  1  0  0  0  0
 18 16  1  0  0  0  0
M  END
>  <REMARK>
  6 active torsions:
  status: ('A' for Active; 'I' for Inactive)
    1  A    between atoms: C_2  and  N_3 
    2  A    between atoms: C_2  and  C_14 
    3  A    between atoms: N_3  and  S_4 
    4  A    between atoms: S_4  and  C_7 
    5  A    between atoms: C_14  and  O_15 
    6  A    between atoms: C_14  and  O_16 

>  <TORSDO>
F 6

$$$$
C:\Users\siddh\.mgltools\PyRx\Ligands\ZINC000036948288_uff_E=563.27.pdbqt
 OpenBabel04182118313D

 16 16  0  0  0  0  0  0  0  0999 V2000
   -5.0070    0.8010    0.0570 N   0  0  0  0  0  0  0  0  0  0  0  0
   -4.8220   -0.3920   -0.8190 C   0  0  0  0  0  2  0  0  0  0  0  0
   -5.8130   -1.5150   -0.5040 C   0  0  0  0  0  2  0  0  0  0  0  0
   -7.4590   -0.8110   -0.6140 S   0  0  0  0  0  0  0  0  0  0  0  0
   -7.8610   -0.6490   -2.0880 O   0  0  0  0  0  0  0  0  0  0  0  0
   -8.5310   -1.7710   -0.0790 O   0  0  0  0  0  0  0  0  0  0  0  0
   -7.5170    0.7810    0.2100 C   0  0  0  0  0  2  0  0  0  0  0  0
   -6.2660    1.5500   -0.2200 C   0  0  0  0  0  2  0  0  0  0  0  0
   -3.8280    1.7030   -0.0060 C   0  0  0  0  0  2  0  0  0  0  0  0
   -3.5510    2.2690   -1.4180 C   0  0  0  0  0  2  0  0  0  0  0  0
   -2.3700    3.2460   -1.4230 C   0  0  0  0  0  2  0  0  0  0  0  0
   -2.1040    3.7960   -2.8020 C   0  0  0  0  0  3  0  0  0  0  0  0
   -2.8470    3.4170   -3.8600 O   0  0  0  0  0  0  0  0  0  0  0  0
   -3.2430    4.0520   -4.4240 H   0  0  0  0  0  0  0  0  0  0  0  0
   -1.1050    4.6830   -2.9790 O   0  0  0  0  0  0  0  0  0  0  0  0
   -0.5820    4.9530   -2.2490 H   0  0  0  0  0  0  0  0  0  0  0  0
  2  3  1  0  0  0  0
  2  1  1  0  0  0  0
  4  3  1  0  0  0  0
  4  6  2  0  0  0  0
  4  7  1  0  0  0  0
  5  4  2  0  0  0  0
  8  1  1  0  0  0  0
  8  7  1  0  0  0  0
  9  1  1  0  0  0  0
 10  9  1  0  0  0  0
 11 10  1  0  0  0  0
 12 11  1  0  0  0  0
 13 12  1  0  0  0  0
 14 13  1  0  0  0  0
 15 12  1  0  0  0  0
 15 16  1  0  0  0  0
M  END
>  <REMARK>
  6 active torsions:
  status: ('A' for Active; 'I' for Inactive)
    1  A    between atoms: O_1  and  C_2 
    2  A    between atoms: C_2  and  O_3 
    3  A    between atoms: C_2  and  C_4 
    4  A    between atoms: C_4  and  C_5 
    5  A    between atoms: C_5  and  C_6 
    6  A    between atoms: C_6  and  N_7 

>  <TORSDO>
F 6

$$$$
C:\Users\siddh\.mgltools\PyRx\Ligands\ZINC000036896411_uff_E=201.34.pdbqt
 OpenBabel04182118313D

 20 21  0  0  0  0  0  0  0  0999 V2000
    0.0340   -0.1830   -0.0290 O   0  0  0  0  0  0  0  0  0  0  0  0
    0.0090    1.1630   -0.0350 C   0  0  0  0  0  0  0  0  0  0  0  0
    0.0810   -1.1180   -0.0160 H   0  0  0  0  0  0  0  0  0  0  0  0
    1.1710    1.8460   -0.0550 O   0  0  0  0  0  0  0  0  0  0  0  0
    1.1640    2.7830   -0.0590 H   0  0  0  0  0  0  0  0  0  0  0  0
   -1.2820    1.8770   -0.0080 C   0  0  0  0  0  0  0  0  0  0  0  0
   -2.4380    1.1670    0.0310 N   0  0  0  0  0  0  0  0  0  0  0  0
   -3.6470    1.7780    0.0640 C   0  0  0  0  0  3  0  0  0  0  0  0
   -2.3960    0.1480    0.0350 H   0  0  0  0  0  0  0  0  0  0  0  0
   -3.7370    3.1700    0.0680 C   0  0  0  0  0  3  0  0  0  0  0  0
   -2.5620    3.9650    0.0260 C   0  0  0  0  0  0  0  0  0  0  0  0
   -1.3240    3.2770   -0.0200 C   0  0  0  0  0  3  0  0  0  0  0  0
   -2.6170    5.4210    0.0220 N   0  0  0  0  0  0  0  0  0  0  0  0
   -1.4110    6.2460    0.1430 C   0  0  0  0  0  2  0  0  0  0  0  0
   -1.6320    7.4190    1.0660 C   0  0  0  0  0  0  0  0  0  0  0  0
   -2.8620    7.7080    1.5720 N   0  0  0  0  0  0  0  0  0  0  0  0
   -0.6750    8.1150    1.3770 O   0  0  0  0  0  0  0  0  0  0  0  0
   -4.0550    6.9630    1.2080 C   0  0  0  0  0  2  0  0  0  0  0  0
   -2.9530    8.4680    2.2620 H   0  0  0  0  0  0  0  0  0  0  0  0
   -3.8620    6.1630   -0.0820 C   0  0  0  0  0  2  0  0  0  0  0  0
  1  3  1  0  0  0  0
  2  1  1  0  0  0  0
  2  6  2  0  0  0  0
  4  2  1  0  0  0  0
  5  4  1  0  0  0  0
  6  7  1  0  0  0  0
  7  9  1  0  0  0  0
  7  8  1  0  0  0  0
  8 10  2  0  0  0  0
 11 10  1  0  0  0  0
 12  6  1  0  0  0  0
 12 11  2  0  0  0  0
 13 11  1  0  0  0  0
 13 14  1  0  0  0  0
 14 15  1  0  0  0  0
 15 17  2  0  0  0  0
 15 16  1  0  0  0  0
 16 19  1  0  0  0  0
 18 16  1  0  0  0  0
 20 13  1  0  0  0  0
 20 18  1  0  0  0  0
M  END
>  <REMARK>
  3 active torsions:
  status: ('A' for Active; 'I' for Inactive)
    1  A    between atoms: C_2  and  O_3 
    2  A    between atoms: C_2  and  C_4 
    3  A    between atoms: C_6  and  N_7 

>  <TORSDO>
F 3

$$$$
C:\Users\siddh\.mgltools\PyRx\Ligands\ZINC000036747153_uff_E=135.41.pdbqt
 OpenBabel04182118313D

 22 22  0  0  1  0  0  0  0  0999 V2000
   -4.4570   -5.8140   -0.5080 C   0  0  2  0  0  3  0  0  0  0  0  0
   -5.2200   -5.4530    0.7820 C   0  0  0  0  0  2  0  0  0  0  0  0
   -5.4520   -6.6430    1.6800 C   0  0  0  0  0  3  0  0  0  0  0  0
   -4.7890   -7.8040    1.5300 C   0  0  0  0  0  3  0  0  0  0  0  0
   -3.7160   -8.0030    0.4840 C   0  0  0  0  0  2  0  0  0  0  0  0
   -3.2360   -6.6790   -0.1480 C   0  0  1  0  0  3  0  0  0  0  0  0
   -4.0680   -4.5380   -1.2200 C   0  0  0  0  0  0  0  0  0  0  0  0
   -4.7270   -4.1520   -2.3460 N   0  0  0  0  0  0  0  0  0  0  0  0
   -5.5160   -4.7190   -2.6930 H   0  0  0  0  0  0  0  0  0  0  0  0
   -3.1760   -3.8400   -0.7580 O   0  0  0  0  0  0  0  0  0  0  0  0
   -4.3540   -2.9350   -3.0420 C   0  0  0  0  0  2  0  0  0  0  0  0
   -5.3170   -2.6300   -4.1950 C   0  0  0  0  0  2  0  0  0  0  0  0
   -4.9270   -1.3800   -4.9510 C   0  0  0  0  0  0  0  0  0  0  0  0
   -5.6820   -0.9590   -5.9910 N   0  0  0  0  0  0  0  0  0  0  0  0
   -5.4200   -0.1090   -6.5120 H   0  0  0  0  0  0  0  0  0  0  0  0
   -6.5240   -1.4820   -6.2710 H   0  0  0  0  0  0  0  0  0  0  0  0
   -3.9320   -0.7450   -4.6320 O   0  0  0  0  0  0  0  0  0  0  0  0
   -2.3470   -6.9600   -1.3330 C   0  0  0  0  0  3  0  0  0  0  0  0
   -2.8230   -7.6300   -2.4010 O   0  0  0  0  0  0  0  0  0  0  0  0
   -2.2650   -7.8010   -3.1330 H   0  0  0  0  0  0  0  0  0  0  0  0
   -1.0700   -6.5290   -1.3320 O   0  0  0  0  0  0  0  0  0  0  0  0
   -0.7340   -6.0630   -0.5920 H   0  0  0  0  0  0  0  0  0  0  0  0
  1  7  1  1  0  0  0
  1  6  1  0  0  0  0
  1  2  1  0  0  0  0
  2  3  1  0  0  0  0
  4  3  2  0  0  0  0
  5  4  1  0  0  0  0
  6 18  1  6  0  0  0
  6  5  1  0  0  0  0
  7 10  2  0  0  0  0
  8  7  1  0  0  0  0
  9  8  1  0  0  0  0
 11  8  1  0  0  0  0
 12 11  1  0  0  0  0
 13 17  2  0  0  0  0
 13 12  1  0  0  0  0
 14 13  1  0  0  0  0
 15 14  1  0  0  0  0
 16 14  1  0  0  0  0
 18 21  1  0  0  0  0
 19 18  1  0  0  0  0
 20 19  1  0  0  0  0
 21 22  1  0  0  0  0
M  END
>  <REMARK>
  7 active torsions:
  status: ('A' for Active; 'I' for Inactive)
       I    between atoms: N_1  and  C_2 
    1  A    between atoms: C_2  and  C_4 
    2  A    between atoms: C_4  and  C_5 
    3  A    between atoms: C_5  and  N_6 
       I    between atoms: N_6  and  C_7 
    4  A    between atoms: C_7  and  C_9 
    5  A    between atoms: C_14  and  C_15 
    6  A    between atoms: C_15  and  O_16 
    7  A    between atoms: C_15  and  O_17 

>  <TORSDO>
F 7

$$$$
C:\Users\siddh\.mgltools\PyRx\Ligands\ZINC000036747152_uff_E=162.77.pdbqt
 OpenBabel04182118313D

 22 22  0  0  1  0  0  0  0  0999 V2000
   -3.4770   -5.1450    0.0190 C   0  0  2  0  0  3  0  0  0  0  0  0
   -4.2570   -4.9140    1.3360 C   0  0  0  0  0  2  0  0  0  0  0  0
   -3.6170   -5.6100    2.5230 C   0  0  0  0  0  3  0  0  0  0  0  0
   -2.7000   -6.5920    2.3840 C   0  0  0  0  0  3  0  0  0  0  0  0
   -2.2740   -7.1310    1.0340 C   0  0  0  0  0  2  0  0  0  0  0  0
   -3.2020   -6.6610   -0.1070 C   0  0  2  0  0  3  0  0  0  0  0  0
   -2.1850   -4.3280   -0.0040 C   0  0  0  0  0  0  0  0  0  0  0  0
   -1.8260   -3.6320   -1.1150 N   0  0  0  0  0  0  0  0  0  0  0  0
   -2.4310   -3.6480   -1.9490 H   0  0  0  0  0  0  0  0  0  0  0  0
   -1.4470   -4.3330    0.9710 O   0  0  0  0  0  0  0  0  0  0  0  0
   -0.5580   -2.9260   -1.1560 C   0  0  0  0  0  2  0  0  0  0  0  0
   -0.2710   -2.3570   -2.5480 C   0  0  0  0  0  2  0  0  0  0  0  0
    1.0500   -1.6230   -2.6070 C   0  0  0  0  0  0  0  0  0  0  0  0
    1.4610   -1.0710   -3.7700 N   0  0  0  0  0  0  0  0  0  0  0  0
    2.3600   -0.5670   -3.8170 H   0  0  0  0  0  0  0  0  0  0  0  0
    0.8830   -1.1490   -4.6180 H   0  0  0  0  0  0  0  0  0  0  0  0
    1.7520   -1.5230   -1.6100 O   0  0  0  0  0  0  0  0  0  0  0  0
   -2.6520   -7.0820   -1.4540 C   0  0  0  0  0  3  0  0  0  0  0  0
   -2.4100   -8.3840   -1.6960 O   0  0  0  0  0  0  0  0  0  0  0  0
   -2.0700   -8.6500   -2.5280 H   0  0  0  0  0  0  0  0  0  0  0  0
   -2.4310   -6.1810   -2.4300 O   0  0  0  0  0  0  0  0  0  0  0  0
   -2.5960   -5.2710   -2.2740 H   0  0  0  0  0  0  0  0  0  0  0  0
  1  7  1  1  0  0  0
  1  2  1  0  0  0  0
  2  3  1  0  0  0  0
  4  3  2  0  0  0  0
  5  4  1  0  0  0  0
  6 18  1  6  0  0  0
  6  1  1  0  0  0  0
  6  5  1  0  0  0  0
  7 10  2  0  0  0  0
  8  7  1  0  0  0  0
  9  8  1  0  0  0  0
 11  8  1  0  0  0  0
 12 11  1  0  0  0  0
 13 12  1  0  0  0  0
 13 17  2  0  0  0  0
 14 13  1  0  0  0  0
 15 14  1  0  0  0  0
 16 14  1  0  0  0  0
 19 18  1  0  0  0  0
 20 19  1  0  0  0  0
 21 22  1  0  0  0  0
 21 18  1  0  0  0  0
M  END
>  <REMARK>
  7 active torsions:
  status: ('A' for Active; 'I' for Inactive)
       I    between atoms: N_1  and  C_2 
    1  A    between atoms: C_2  and  C_4 
    2  A    between atoms: C_4  and  C_5 
    3  A    between atoms: C_5  and  N_6 
       I    between atoms: N_6  and  C_7 
    4  A    between atoms: C_7  and  C_9 
    5  A    between atoms: C_14  and  C_15 
    6  A    between atoms: C_15  and  O_16 
    7  A    between atoms: C_15  and  O_17 

>  <TORSDO>
F 7

$$$$
C:\Users\siddh\.mgltools\PyRx\Ligands\ZINC000036612475_uff_E=111.13.pdbqt
 OpenBabel04182118313D

 21 21  0  0  1  0  0  0  0  0999 V2000
    1.2440   -4.2790   -2.0530 C   0  0  1  0  0  3  0  0  0  0  0  0
    1.3100   -2.8290   -1.9010 N   0  0  0  0  0  0  0  0  0  0  0  0
    0.5170   -2.1460   -1.0250 C   0  0  0  0  0  0  0  0  0  0  0  0
   -0.2520   -2.7510   -0.2910 O   0  0  0  0  0  0  0  0  0  0  0  0
    1.9910   -2.2990   -2.4650 H   0  0  0  0  0  0  0  0  0  0  0  0
    0.5900   -0.6610   -0.9530 C   0  0  0  0  0  0  0  0  0  0  0  0
   -0.0880    0.0240    0.0110 N   0  0  0  0  0  0  0  0  0  0  0  0
   -0.0510    1.4690    0.0770 C   0  0  0  0  0  1  0  0  0  0  0  0
   -0.6360   -0.4890    0.7180 H   0  0  0  0  0  0  0  0  0  0  0  0
    1.2650   -0.0520   -1.7720 O   0  0  0  0  0  0  0  0  0  0  0  0
   -0.0840   -4.6860   -2.6400 C   0  0  0  0  0  3  0  0  0  0  0  0
   -0.4660   -4.2320   -3.8500 O   0  0  0  0  0  0  0  0  0  0  0  0
   -1.2930   -4.4900   -4.2080 H   0  0  0  0  0  0  0  0  0  0  0  0
   -0.8990   -5.5080   -1.9520 O   0  0  0  0  0  0  0  0  0  0  0  0
   -0.6400   -5.8270   -1.1100 H   0  0  0  0  0  0  0  0  0  0  0  0
    2.3840   -4.7820   -2.9220 C   0  0  0  0  0  0  0  0  0  0  0  0
    3.2390   -5.7900   -2.4390 C   0  0  0  0  0  3  0  0  0  0  0  0
    4.3000   -6.2530   -3.2210 C   0  0  0  0  0  3  0  0  0  0  0  0
    4.5290   -5.7070   -4.4860 C   0  0  0  0  0  3  0  0  0  0  0  0
    3.6890   -4.7040   -4.9770 C   0  0  0  0  0  3  0  0  0  0  0  0
    2.6170   -4.2460   -4.2050 C   0  0  0  0  0  3  0  0  0  0  0  0
  1 11  1  6  0  0  0
  1  2  1  0  0  0  0
  2  3  1  0  0  0  0
  3  6  1  0  0  0  0
  3  4  2  0  0  0  0
  5  2  1  0  0  0  0
  6  7  1  0  0  0  0
  7  8  1  0  0  0  0
  7  9  1  0  0  0  0
 10  6  2  0  0  0  0
 11 14  1  0  0  0  0
 12 11  1  0  0  0  0
 13 12  1  0  0  0  0
 14 15  1  0  0  0  0
 16 17  1  0  0  0  0
 16  1  1  0  0  0  0
 18 17  2  0  0  0  0
 19 18  1  0  0  0  0
 20 19  2  0  0  0  0
 20 21  1  0  0  0  0
 21 16  2  0  0  0  0
M  END
>  <REMARK>
  6 active torsions:
  status: ('A' for Active; 'I' for Inactive)
       I    between atoms: N_2  and  C_3 
    1  A    between atoms: C_3  and  C_5 
       I    between atoms: C_5  and  N_7 
    2  A    between atoms: N_7  and  C_8 
    3  A    between atoms: C_8  and  C_9 
    4  A    between atoms: C_8  and  C_12 
    5  A    between atoms: C_9  and  O_10 
    6  A    between atoms: C_9  and  O_11 

>  <TORSDO>
F 6

$$$$
C:\Users\siddh\.mgltools\PyRx\Ligands\ZINC000036612474_uff_E=113.42.pdbqt
 OpenBabel04182118313D

 21 21  0  0  1  0  0  0  0  0999 V2000
    1.1970   -4.2760   -2.0750 C   0  0  2  0  0  3  0  0  0  0  0  0
    1.0130   -2.8260   -2.0760 N   0  0  0  0  0  0  0  0  0  0  0  0
    0.6510   -2.1350   -0.9560 C   0  0  0  0  0  0  0  0  0  0  0  0
    0.4180   -2.7310    0.0860 O   0  0  0  0  0  0  0  0  0  0  0  0
    1.1420   -2.3060   -2.9570 H   0  0  0  0  0  0  0  0  0  0  0  0
    0.5290   -0.6510   -0.9990 C   0  0  0  0  0  0  0  0  0  0  0  0
    0.0400    0.0360    0.0710 N   0  0  0  0  0  0  0  0  0  0  0  0
   -0.0570    1.4800    0.0610 C   0  0  0  0  0  1  0  0  0  0  0  0
   -0.2770   -0.4730    0.9090 H   0  0  0  0  0  0  0  0  0  0  0  0
    0.8780   -0.0480   -2.0050 O   0  0  0  0  0  0  0  0  0  0  0  0
    2.4040   -4.6800   -1.2600 C   0  0  0  0  0  3  0  0  0  0  0  0
    3.1920   -3.7520   -0.6810 O   0  0  0  0  0  0  0  0  0  0  0  0
    3.9370   -4.0180   -0.1780 H   0  0  0  0  0  0  0  0  0  0  0  0
    2.6980   -5.9860   -1.1080 O   0  0  0  0  0  0  0  0  0  0  0  0
    2.1550   -6.6370   -1.5060 H   0  0  0  0  0  0  0  0  0  0  0  0
    1.3480   -4.7930   -3.4950 C   0  0  0  0  0  0  0  0  0  0  0  0
    0.4930   -5.8060   -3.9670 C   0  0  0  0  0  3  0  0  0  0  0  0
    0.6170   -6.2820   -5.2750 C   0  0  0  0  0  3  0  0  0  0  0  0
    1.5840   -5.7450   -6.1270 C   0  0  0  0  0  3  0  0  0  0  0  0
    2.4380   -4.7380   -5.6700 C   0  0  0  0  0  3  0  0  0  0  0  0
    2.3300   -4.2680   -4.3580 C   0  0  0  0  0  3  0  0  0  0  0  0
  1 11  1  1  0  0  0
  2  1  1  0  0  0  0
  2  3  1  0  0  0  0
  3  4  2  0  0  0  0
  5  2  1  0  0  0  0
  6  3  1  0  0  0  0
  6  7  1  0  0  0  0
  7  9  1  0  0  0  0
  8  7  1  0  0  0  0
 10  6  2  0  0  0  0
 11 14  1  0  0  0  0
 11 12  1  0  0  0  0
 12 13  1  0  0  0  0
 15 14  1  0  0  0  0
 16  1  1  0  0  0  0
 17 16  1  0  0  0  0
 18 17  2  0  0  0  0
 19 20  2  0  0  0  0
 19 18  1  0  0  0  0
 20 21  1  0  0  0  0
 21 16  2  0  0  0  0
M  END
>  <REMARK>
  6 active torsions:
  status: ('A' for Active; 'I' for Inactive)
       I    between atoms: N_2  and  C_3 
    1  A    between atoms: C_3  and  C_5 
       I    between atoms: C_5  and  N_7 
    2  A    between atoms: N_7  and  C_8 
    3  A    between atoms: C_8  and  C_9 
    4  A    between atoms: C_8  and  C_12 
    5  A    between atoms: C_9  and  O_10 
    6  A    between atoms: C_9  and  O_11 

>  <TORSDO>
F 6

$$$$
C:\Users\siddh\.mgltools\PyRx\Ligands\ZINC000036610923_uff_E=380.51.pdbqt
 OpenBabel04182118313D

 23 23  0  0  0  0  0  0  0  0999 V2000
    0.0620    1.5210    0.1460 C   0  0  0  0  0  1  0  0  0  0  0  0
    0.0750    0.0610    0.0700 N   0  0  0  0  0  0  0  0  0  0  0  0
   -0.1410   -0.5810   -1.0690 N   0  0  0  0  0  0  0  0  0  0  0  0
   -0.2870   -0.1430   -1.9790 H   0  0  0  0  0  0  0  0  0  0  0  0
   -0.1370   -1.9050   -0.8280 C   0  0  0  0  0  2  0  0  0  0  0  0
    0.0780   -2.1100    0.5280 C   0  0  0  0  0  0  0  0  0  0  0  0
    0.2170   -0.8410    1.0770 C   0  0  0  0  0  0  0  0  0  0  0  0
    0.1930   -3.3510    1.2370 N   0  0  0  0  0  0  0  0  0  0  0  0
    0.1740   -4.5860    0.6610 C   0  0  0  0  0  0  0  0  0  0  0  0
    0.0330   -4.7180   -0.5450 O   0  0  0  0  0  0  0  0  0  0  0  0
    0.3400   -3.3160    2.2530 H   0  0  0  0  0  0  0  0  0  0  0  0
    0.3560   -5.8030    1.5390 C   0  0  0  0  0  2  0  0  0  0  0  0
    0.3650   -7.1220    0.7520 C   0  0  0  0  0  2  0  0  0  0  0  0
    0.5560   -8.3250    1.6350 C   0  0  0  0  0  3  0  0  0  0  0  0
    0.6940   -8.1930    2.9700 O   0  0  0  0  0  0  0  0  0  0  0  0
    0.8120   -8.9530    3.5060 H   0  0  0  0  0  0  0  0  0  0  0  0
    0.5900   -9.5520    1.0840 O   0  0  0  0  0  0  0  0  0  0  0  0
    0.4940   -9.6520    0.1570 H   0  0  0  0  0  0  0  0  0  0  0  0
    0.4530   -0.5420    2.5220 C   0  0  0  0  0  0  0  0  0  0  0  0
    1.1990    0.5130    2.9220 N   0  0  0  0  0  0  0  0  0  0  0  0
    1.6850    1.1130    2.2500 H   0  0  0  0  0  0  0  0  0  0  0  0
    1.3620    0.6780    3.9260 H   0  0  0  0  0  0  0  0  0  0  0  0
   -0.0060   -1.2920    3.3710 O   0  0  0  0  0  0  0  0  0  0  0  0
  2  1  1  0  0  0  0
  2  7  1  0  0  0  0
  3  5  1  0  0  0  0
  3  2  1  0  0  0  0
  4  3  1  0  0  0  0
  5  6  1  0  0  0  0
  6  7  2  0  0  0  0
  6  8  1  0  0  0  0
  7 19  1  0  0  0  0
  8 11  1  0  0  0  0
  9  8  1  0  0  0  0
  9 12  1  0  0  0  0
 10  9  2  0  0  0  0
 13 12  1  0  0  0  0
 13 14  1  0  0  0  0
 14 15  1  0  0  0  0
 15 16  1  0  0  0  0
 17 14  1  0  0  0  0
 18 17  1  0  0  0  0
 19 20  1  0  0  0  0
 19 23  2  0  0  0  0
 20 22  1  0  0  0  0
 21 20  1  0  0  0  0
M  END
>  <REMARK>
  7 active torsions:
  status: ('A' for Active; 'I' for Inactive)
    1  A    between atoms: C_6  and  N_7 
       I    between atoms: N_7  and  C_8 
    2  A    between atoms: C_8  and  C_10 
    3  A    between atoms: C_10  and  C_11 
    4  A    between atoms: C_11  and  C_12 
    5  A    between atoms: C_12  and  O_13 
    6  A    between atoms: C_12  and  O_14 
    7  A    between atoms: C_15  and  C_16 
       I    between atoms: C_16  and  N_17 

>  <TORSDO>
F 7

$$$$
C:\Users\siddh\.mgltools\PyRx\Ligands\ZINC000036556779_uff_E=1950.87.pdbqt
 OpenBabel04182118313D

 21 23  0  0  1  0  0  0  0  0999 V2000
    0.0910   -0.4740    2.6900 C   0  0  0  0  0  0  0  0  0  0  0  0
    0.0590   -1.4160    3.6420 C   0  0  0  0  0  0  0  0  0  0  0  0
    0.0280   -1.6990    5.0300 C   0  0  1  0  0  3  0  0  0  0  0  0
    0.0260   -2.8130    3.8020 C   0  0  2  0  0  3  0  0  0  0  0  0
    1.3730   -3.3800    4.0310 C   0  0  0  0  0  0  0  0  0  0  0  0
    1.8360   -4.2790    3.3490 O   0  0  0  0  0  0  0  0  0  0  0  0
    2.0710   -2.8210    5.0370 O   0  0  0  0  0  0  0  0  0  0  0  0
    1.3970   -1.8250    5.7170 C   0  0  2  0  0  3  0  0  0  0  0  0
    0.0580   -0.8550    1.2570 C   0  0  0  0  0  0  0  0  0  0  0  0
   -0.0030   -0.0350    0.1500 C   0  0  0  0  0  0  0  0  0  0  0  0
   -0.0240    1.4580    0.0950 C   0  0  0  0  0  1  0  0  0  0  0  0
   -0.0620   -0.8280   -0.9330 N   0  0  0  0  0  0  0  0  0  0  0  0
   -0.0330   -2.0540   -0.4910 O   0  0  0  0  0  0  0  0  0  0  0  0
   -0.1190   -0.5300   -1.9070 H   0  0  0  0  0  0  0  0  0  0  0  0
    0.0350   -2.1240    0.8090 N   0  0  0  0  0  0  0  0  0  0  0  0
    0.0660   -2.9720    1.3750 H   0  0  0  0  0  0  0  0  0  0  0  0
    0.1170    0.8240    3.0470 O   0  0  0  0  0  0  0  0  0  0  0  0
    0.1400    1.4900    2.3880 H   0  0  0  0  0  0  0  0  0  0  0  0
    1.2070   -2.2500    7.1760 C   0  0  0  0  0  2  0  0  0  0  0  0
    2.4560   -2.4070    7.7890 O   0  0  0  0  0  0  0  0  0  0  0  0
    2.2810   -2.8420    8.6640 H   0  0  0  0  0  0  0  0  0  0  0  0
  1 17  1  0  0  0  0
  1  2  2  0  0  0  0
  3  2  1  6  0  0  0
  3  8  1  0  0  0  0
  4  2  1  6  0  0  0
  4  5  1  0  0  0  0
  4  3  1  0  0  0  0
  5  7  1  0  0  0  0
  6  5  2  0  0  0  0
  7  8  1  0  0  0  0
  8 19  1  1  0  0  0
  9  1  1  0  0  0  0
 10  9  2  0  0  0  0
 11 10  1  0  0  0  0
 12 13  1  0  0  0  0
 12 10  1  0  0  0  0
 13 15  1  0  0  0  0
 14 12  1  0  0  0  0
 15  9  1  0  0  0  0
 15 16  1  0  0  0  0
 18 17  1  0  0  0  0
 19 20  1  0  0  0  0
 20 21  1  0  0  0  0
M  END
>  <REMARK>
  4 active torsions:
  status: ('A' for Active; 'I' for Inactive)
    1  A    between atoms: C_8  and  C_9 
    2  A    between atoms: C_9  and  O_10 
    3  A    between atoms: C_17  and  C_18 
    4  A    between atoms: C_18  and  O_19 

>  <TORSDO>
F 4

$$$$
C:\Users\siddh\.mgltools\PyRx\Ligands\ZINC000036532777_uff_E=520.31.pdbqt
 OpenBabel04182118313D

 20 20  0  0  0  0  0  0  0  0999 V2000
    0.0390    0.0520   -0.0060 C   0  0  0  0  0  0  0  0  0  0  0  0
   -1.1470   -0.7030    0.0850 C   0  0  0  0  0  3  0  0  0  0  0  0
   -1.1160   -2.0970    0.0860 C   0  0  0  0  0  0  0  0  0  0  0  0
    0.0990   -2.7640    0.0070 C   0  0  0  0  0  3  0  0  0  0  0  0
    1.2890   -2.0470   -0.0840 C   0  0  0  0  0  3  0  0  0  0  0  0
    1.2970   -0.6360   -0.0980 C   0  0  0  0  0  0  0  0  0  0  0  0
   -2.6360   -3.0440    0.1390 S   0  0  0  0  0  0  0  0  0  0  0  0
   -2.4990   -4.3220    0.9800 O   0  0  0  0  0  0  0  0  0  0  0  0
   -3.8090   -2.3190    0.8190 O   0  0  0  0  0  0  0  0  0  0  0  0
   -3.2350   -3.6030   -1.4280 N   0  0  0  0  0  0  0  0  0  0  0  0
   -2.9570   -2.9020   -2.1520 H   0  0  0  0  0  0  0  0  0  0  0  0
   -4.2770   -3.6690   -1.4040 H   0  0  0  0  0  0  0  0  0  0  0  0
   -0.0870    1.4700   -0.0200 N   0  0  0  0  0  0  0  0  0  0  0  0
    0.7040    2.1110   -0.0990 H   0  0  0  0  0  0  0  0  0  0  0  0
   -1.0230    1.8990    0.0380 H   0  0  0  0  0  0  0  0  0  0  0  0
    2.6370    0.0310   -0.2180 C   0  0  0  0  0  3  0  0  0  0  0  0
    3.7460   -0.7240   -0.3520 O   0  0  0  0  0  0  0  0  0  0  0  0
    4.5860   -0.3150   -0.4270 H   0  0  0  0  0  0  0  0  0  0  0  0
    2.7840    1.3660   -0.1990 O   0  0  0  0  0  0  0  0  0  0  0  0
    2.0330    1.9180   -0.1070 H   0  0  0  0  0  0  0  0  0  0  0  0
  1  2  1  0  0  0  0
  2  3  2  0  0  0  0
  3  7  1  0  0  0  0
  4  3  1  0  0  0  0
  5  4  2  0  0  0  0
  6  5  1  0  0  0  0
  6  1  2  0  0  0  0
  7  9  2  0  0  0  0
  7  8  2  0  0  0  0
 10 12  1  0  0  0  0
 10  7  1  0  0  0  0
 11 10  1  0  0  0  0
 13  1  1  0  0  0  0
 13 15  1  0  0  0  0
 14 13  1  0  0  0  0
 16 19  1  0  0  0  0
 16  6  1  0  0  0  0
 17 16  1  0  0  0  0
 18 17  1  0  0  0  0
 19 20  1  0  0  0  0
M  END
>  <REMARK>
  6 active torsions:
  status: ('A' for Active; 'I' for Inactive)
    1  A    between atoms: N_1  and  C_2 
    2  A    between atoms: C_4  and  S_5 
    3  A    between atoms: S_5  and  N_6 
    4  A    between atoms: C_11  and  C_12 
    5  A    between atoms: C_12  and  O_13 
    6  A    between atoms: C_12  and  O_14 

>  <TORSDO>
F 6

$$$$
C:\Users\siddh\.mgltools\PyRx\Ligands\ZINC000036220600_uff_E=444.97.pdbqt
 OpenBabel04182118313D

 16 16  0  0  1  0  0  0  0  0999 V2000
    0.1020   -0.2000   -0.0010 O   0  0  0  0  0  0  0  0  0  0  0  0
    0.1190    1.1460    0.0070 C   0  0  0  0  0  3  0  0  0  0  0  0
    0.0700   -1.1370   -0.0170 H   0  0  0  0  0  0  0  0  0  0  0  0
    1.2980    1.7960    0.0040 O   0  0  0  0  0  0  0  0  0  0  0  0
    1.3160    2.7330    0.0090 H   0  0  0  0  0  0  0  0  0  0  0  0
   -1.1520    1.9390    0.0200 C   0  0  0  0  0  2  0  0  0  0  0  0
   -2.6670    0.9320    0.0210 S   0  0  0  0  0  0  0  0  0  0  0  0
   -2.6570   -0.0320   -1.1760 O   0  0  0  0  0  0  0  0  0  0  0  0
   -2.6400   -0.0700    1.1870 O   0  0  0  0  0  0  0  0  0  0  0  0
   -4.2290    1.7930    0.0360 C   0  0  2  0  0  3  0  0  0  0  0  0
   -4.8050    2.1600   -1.1390 N   0  0  0  0  0  0  0  0  0  0  0  0
   -5.9510    2.8930   -1.1710 C   0  0  0  0  0  3  0  0  0  0  0  0
   -4.3680    1.8800   -2.0170 H   0  0  0  0  0  0  0  0  0  0  0  0
   -6.5570    3.2930    0.0220 C   0  0  0  0  0  3  0  0  0  0  0  0
   -5.9830    2.9260    1.2400 C   0  0  0  0  0  3  0  0  0  0  0  0
   -4.8100    2.1710    1.2510 C   0  0  0  0  0  3  0  0  0  0  0  0
  1  2  1  0  0  0  0
  2  6  1  0  0  0  0
  3  1  1  0  0  0  0
  4  2  1  0  0  0  0
  4  5  1  0  0  0  0
  6  7  1  0  0  0  0
  7  9  2  0  0  0  0
  8  7  2  0  0  0  0
 10  7  1  6  0  0  0
 10 16  1  0  0  0  0
 11 10  1  0  0  0  0
 12 11  1  0  0  0  0
 12 14  2  0  0  0  0
 13 11  1  0  0  0  0
 14 15  1  0  0  0  0
 15 16  2  0  0  0  0
M  END
>  <REMARK>
  4 active torsions:
  status: ('A' for Active; 'I' for Inactive)
    1  A    between atoms: C_2  and  O_3 
    2  A    between atoms: C_2  and  C_4 
    3  A    between atoms: C_4  and  S_5 
    4  A    between atoms: S_5  and  C_8 

>  <TORSDO>
F 4

$$$$
C:\Users\siddh\.mgltools\PyRx\Ligands\ZINC000036075290_uff_E=362.81.pdbqt
 OpenBabel04182118313D

 22 23  0  0  1  0  0  0  0  0999 V2000
   -0.0040   -0.0060    0.0010 C   0  0  0  0  0  0  0  0  0  0  0  0
   -1.1720   -0.7200    0.0030 N   0  0  0  0  0  0  0  0  0  0  0  0
   -2.0730   -0.2430    0.0110 H   0  0  0  0  0  0  0  0  0  0  0  0
   -1.1080   -2.0520   -0.0040 N   0  0  0  0  0  0  0  0  0  0  0  0
    0.0330   -2.7390   -0.0140 C   0  0  0  0  0  0  0  0  0  0  0  0
   -0.2020   -4.0650   -0.0200 N   0  0  0  0  0  0  0  0  0  0  0  0
    0.4980   -4.8070   -0.0270 H   0  0  0  0  0  0  0  0  0  0  0  0
   -1.5260   -4.2180   -0.0140 N   0  0  0  0  0  0  0  0  0  0  0  0
   -2.0310   -5.1040   -0.0160 H   0  0  0  0  0  0  0  0  0  0  0  0
   -2.0760   -2.9810   -0.0050 C   0  0  1  0  0  3  0  0  0  0  0  0
    1.2570   -2.0890   -0.0170 C   0  0  0  0  0  3  0  0  0  0  0  0
    1.2350   -0.6880   -0.0100 C   0  0  0  0  0  3  0  0  0  0  0  0
   -3.5500   -2.7170    0.0050 C   0  0  0  0  0  2  0  0  0  0  0  0
   -4.0800   -2.6440    1.4380 C   0  0  0  0  0  2  0  0  0  0  0  0
   -5.5620   -2.3860    1.4660 C   0  0  0  0  0  3  0  0  0  0  0  0
   -6.2650   -2.2560    0.3220 O   0  0  0  0  0  0  0  0  0  0  0  0
   -7.1880   -2.0960    0.3550 H   0  0  0  0  0  0  0  0  0  0  0  0
   -6.1960   -2.2830    2.6470 O   0  0  0  0  0  0  0  0  0  0  0  0
   -5.7160   -2.3720    3.4470 H   0  0  0  0  0  0  0  0  0  0  0  0
   -0.0320    1.4060    0.0080 N   0  0  0  0  0  0  0  0  0  0  0  0
    0.8470    1.9440    0.0050 H   0  0  0  0  0  0  0  0  0  0  0  0
   -0.9310    1.9080    0.0170 H   0  0  0  0  0  0  0  0  0  0  0  0
  1  2  1  0  0  0  0
  1 20  1  0  0  0  0
  2  3  1  0  0  0  0
  4  2  1  0  0  0  0
  5  4  1  0  0  0  0
  6  5  1  0  0  0  0
  6  8  1  0  0  0  0
  7  6  1  0  0  0  0
  8 10  1  0  0  0  0
  9  8  1  0  0  0  0
 10  4  1  0  0  0  0
 10 13  1  1  0  0  0
 11  5  2  0  0  0  0
 11 12  1  0  0  0  0
 12  1  2  0  0  0  0
 13 14  1  0  0  0  0
 14 15  1  0  0  0  0
 15 18  1  0  0  0  0
 16 17  1  0  0  0  0
 16 15  1  0  0  0  0
 18 19  1  0  0  0  0
 20 22  1  0  0  0  0
 21 20  1  0  0  0  0
M  END
>  <REMARK>
  6 active torsions:
  status: ('A' for Active; 'I' for Inactive)
    1  A    between atoms: N_1  and  C_2 
    2  A    between atoms: C_11  and  C_12 
    3  A    between atoms: C_12  and  C_13 
    4  A    between atoms: C_13  and  C_14 
    5  A    between atoms: C_14  and  O_15 
    6  A    between atoms: C_14  and  O_16 

>  <TORSDO>
F 6

$$$$
C:\Users\siddh\.mgltools\PyRx\Ligands\ZINC000035658841_uff_E=660.71.pdbqt
 OpenBabel04182118313D

 19 19  0  0  0  0  0  0  0  0999 V2000
   -0.8420   -0.5070   -1.4760 C   0  0  0  0  0  0  0  0  0  0  0  0
   -2.1830   -0.7640   -1.5930 C   0  0  0  0  0  2  0  0  0  0  0  0
   -2.4180   -1.1730   -2.8500 N   0  0  0  0  0  0  0  0  0  0  0  0
   -1.2830   -1.1920   -3.5360 N   0  0  0  0  0  0  0  0  0  0  0  0
   -1.1750   -1.4680   -4.5120 H   0  0  0  0  0  0  0  0  0  0  0  0
   -0.2960   -0.7820   -2.7130 C   0  0  0  0  0  3  0  0  0  0  0  0
   -3.7170   -1.5460   -3.3950 C   0  0  0  0  0  2  0  0  0  0  0  0
   -4.0590   -0.6700   -4.6030 C   0  0  0  0  0  2  0  0  0  0  0  0
   -5.4000   -1.0130   -5.1890 C   0  0  0  0  0  3  0  0  0  0  0  0
   -6.1670   -1.9810   -4.6470 O   0  0  0  0  0  0  0  0  0  0  0  0
   -7.0010   -2.1830   -5.0230 H   0  0  0  0  0  0  0  0  0  0  0  0
   -5.8410   -0.3470   -6.2710 O   0  0  0  0  0  0  0  0  0  0  0  0
   -5.3140    0.3270   -6.6540 H   0  0  0  0  0  0  0  0  0  0  0  0
   -0.0080    0.0600   -0.0050 S   0  0  0  0  0  0  0  0  0  0  0  0
    1.4530   -0.4080    0.0750 O   0  0  0  0  0  0  0  0  0  0  0  0
   -0.6050   -0.5720    1.2610 O   0  0  0  0  0  0  0  0  0  0  0  0
    0.0210    1.7940    0.3320 N   0  0  0  0  0  0  0  0  0  0  0  0
    0.8530    2.2150   -0.1380 H   0  0  0  0  0  0  0  0  0  0  0  0
   -0.8440    2.2170   -0.0720 H   0  0  0  0  0  0  0  0  0  0  0  0
  1 14  1  0  0  0  0
  2  1  1  0  0  0  0
  3  2  1  0  0  0  0
  4  3  1  0  0  0  0
  4  6  1  0  0  0  0
  5  4  1  0  0  0  0
  6  1  2  0  0  0  0
  7  3  1  0  0  0  0
  8  7  1  0  0  0  0
  9 10  1  0  0  0  0
  9  8  1  0  0  0  0
 11 10  1  0  0  0  0
 12  9  1  0  0  0  0
 13 12  1  0  0  0  0
 14 15  2  0  0  0  0
 14 17  1  0  0  0  0
 14 16  2  0  0  0  0
 18 17  1  0  0  0  0
 19 17  1  0  0  0  0
M  END
>  <REMARK>
  7 active torsions:
  status: ('A' for Active; 'I' for Inactive)
    1  A    between atoms: N_1  and  S_2 
    2  A    between atoms: S_2  and  C_5 
    3  A    between atoms: N_7  and  C_8 
    4  A    between atoms: C_8  and  C_9 
    5  A    between atoms: C_9  and  C_10 
    6  A    between atoms: C_10  and  O_11 
    7  A    between atoms: C_10  and  O_12 

>  <TORSDO>
F 7

$$$$
C:\Users\siddh\.mgltools\PyRx\Ligands\ZINC000035605758_uff_E=202.02.pdbqt
 OpenBabel04182118313D

 19 20  0  0  1  0  0  0  0  0999 V2000
    0.0340   -0.1490    0.0960 O   0  0  0  0  0  0  0  0  0  0  0  0
   -0.0300    1.1960    0.0410 C   0  0  0  0  0  3  0  0  0  0  0  0
    0.1550   -1.0720    0.1990 H   0  0  0  0  0  0  0  0  0  0  0  0
    1.1100    1.9130   -0.0130 O   0  0  0  0  0  0  0  0  0  0  0  0
    1.0730    2.8490   -0.0520 H   0  0  0  0  0  0  0  0  0  0  0  0
   -1.3610    1.8980    0.0290 C   0  0  2  0  0  3  0  0  0  0  0  0
   -2.4000    0.9390    0.1580 O   0  0  0  0  0  0  0  0  0  0  0  0
   -3.6560    1.5900    0.2190 C   0  0  0  0  0  2  0  0  0  0  0  0
   -3.9380    2.3240   -1.0940 C   0  0  0  0  0  2  0  0  0  0  0  0
   -2.8490    3.2730   -1.3380 N   0  0  0  0  0  0  0  0  0  0  0  0
   -1.5150    2.6730   -1.2930 C   0  0  0  0  0  2  0  0  0  0  0  0
   -3.0740    4.6910   -1.6000 C   0  0  0  0  0  0  0  0  0  0  0  0
   -4.3780    5.2500   -1.6530 C   0  0  0  0  0  2  0  0  0  0  0  0
   -4.5560    6.5660   -1.9210 N   0  0  0  0  0  0  0  0  0  0  0  0
   -3.5070    7.3880   -2.1490 C   0  0  0  0  0  2  0  0  0  0  0  0
   -5.5030    6.9460   -1.9520 H   0  0  0  0  0  0  0  0  0  0  0  0
   -2.2470    6.8980   -2.1150 N   0  0  0  0  0  0  0  0  0  0  0  0
   -2.0040    5.5910   -1.8530 C   0  0  0  0  0  3  0  0  0  0  0  0
   -1.4630    7.5260   -2.2920 H   0  0  0  0  0  0  0  0  0  0  0  0
  1  3  1  0  0  0  0
  2  1  1  0  0  0  0
  4  2  1  0  0  0  0
  5  4  1  0  0  0  0
  6  2  1  6  0  0  0
  6  7  1  0  0  0  0
  7  8  1  0  0  0  0
  9  8  1  0  0  0  0
 10 11  1  0  0  0  0
 10  9  1  0  0  0  0
 11  6  1  0  0  0  0
 12 10  1  0  0  0  0
 13 12  1  0  0  0  0
 14 13  1  0  0  0  0
 15 17  1  0  0  0  0
 15 14  1  0  0  0  0
 16 14  1  0  0  0  0
 17 18  1  0  0  0  0
 18 12  2  0  0  0  0
 19 17  1  0  0  0  0
M  END
>  <REMARK>
  3 active torsions:
  status: ('A' for Active; 'I' for Inactive)
    1  A    between atoms: C_2  and  O_3 
    2  A    between atoms: C_2  and  C_4 
    3  A    between atoms: N_6  and  C_7 

>  <TORSDO>
F 3

$$$$
C:\Users\siddh\.mgltools\PyRx\Ligands\ZINC000035600838_uff_E=660.43.pdbqt
 OpenBabel04182118313D

 21 21  0  0  1  0  0  0  0  0999 V2000
    2.7370   -2.4610   -3.0760 C   0  0  0  0  0  0  0  0  0  0  0  0
    3.2810   -1.4240   -3.8010 C   0  0  0  0  0  3  0  0  0  0  0  0
    4.6190   -1.5600   -3.8470 N   0  0  0  0  0  0  0  0  0  0  0  0
    4.9270   -2.6780   -3.1540 C   0  0  0  0  0  0  0  0  0  0  0  0
    3.7780   -3.2630   -2.6600 C   0  0  0  0  0  3  0  0  0  0  0  0
    5.2860   -0.9190   -4.3280 H   0  0  0  0  0  0  0  0  0  0  0  0
    1.0040   -2.7190   -2.7330 S   0  0  0  0  0  0  0  0  0  0  0  0
    0.6530   -4.2110   -2.6360 O   0  0  0  0  0  0  0  0  0  0  0  0
    0.0890   -2.2670   -3.8830 O   0  0  0  0  0  0  0  0  0  0  0  0
    0.3180   -2.0020   -1.2680 N   0  0  0  0  0  0  0  0  0  0  0  0
    0.7310   -2.4870   -0.4390 H   0  0  0  0  0  0  0  0  0  0  0  0
    0.6090   -0.5680   -1.2200 C   0  0  0  0  0  2  0  0  0  0  0  0
   -0.0230    0.0440    0.0420 C   0  0  2  0  0  3  0  0  0  0  0  0
    0.0180    1.5740    0.0340 C   0  0  0  0  0  1  0  0  0  0  0  0
    0.5920   -0.4590    1.2020 O   0  0  0  0  0  0  0  0  0  0  0  0
    1.5440   -0.1730    1.1850 H   0  0  0  0  0  0  0  0  0  0  0  0
    6.2970   -3.1800   -2.9640 C   0  0  0  0  0  3  0  0  0  0  0  0
    7.3410   -2.5160   -3.4950 O   0  0  0  0  0  0  0  0  0  0  0  0
    8.2120   -2.8390   -3.3730 H   0  0  0  0  0  0  0  0  0  0  0  0
    6.5130   -4.3060   -2.2570 O   0  0  0  0  0  0  0  0  0  0  0  0
    5.7900   -4.7720   -1.8850 H   0  0  0  0  0  0  0  0  0  0  0  0
  1  7  1  0  0  0  0
  1  5  1  0  0  0  0
  2  1  2  0  0  0  0
  3  2  1  0  0  0  0
  3  4  1  0  0  0  0
  4 17  1  0  0  0  0
  4  5  2  0  0  0  0
  6  3  1  0  0  0  0
  7  8  2  0  0  0  0
  7 10  1  0  0  0  0
  9  7  2  0  0  0  0
 10 12  1  0  0  0  0
 10 11  1  0  0  0  0
 12 13  1  0  0  0  0
 13 14  1  6  0  0  0
 13 15  1  0  0  0  0
 16 15  1  0  0  0  0
 17 20  1  0  0  0  0
 18 19  1  0  0  0  0
 18 17  1  0  0  0  0
 20 21  1  0  0  0  0
M  END
>  <REMARK>
  8 active torsions:
  status: ('A' for Active; 'I' for Inactive)
    1  A    between atoms: C_2  and  O_3 
    2  A    between atoms: C_2  and  C_4 
    3  A    between atoms: C_4  and  N_5 
    4  A    between atoms: N_5  and  S_6 
    5  A    between atoms: S_6  and  C_9 
    6  A    between atoms: C_12  and  C_13 
    7  A    between atoms: C_13  and  O_14 
    8  A    between atoms: C_13  and  O_15 

>  <TORSDO>
F 8

$$$$
C:\Users\siddh\.mgltools\PyRx\Ligands\ZINC000035408852_uff_E=100.55.pdbqt
 OpenBabel04182118313D

 21 21  0  0  1  0  0  0  0  0999 V2000
    0.0230   -0.0670   -2.4380 N   0  0  0  0  0  0  0  0  0  0  0  0
    0.6080   -0.0530   -3.6690 C   0  0  0  0  0  0  0  0  0  0  0  0
    1.7850   -0.3670   -3.7930 O   0  0  0  0  0  0  0  0  0  0  0  0
   -0.9540    0.2520   -2.3490 H   0  0  0  0  0  0  0  0  0  0  0  0
   -0.1730    0.3720   -4.8600 C   0  0  0  0  0  0  0  0  0  0  0  0
    0.4350    0.5210   -6.1140 C   0  0  0  0  0  3  0  0  0  0  0  0
   -0.3360    0.9150   -7.2050 C   0  0  0  0  0  2  0  0  0  0  0  0
   -1.7000    1.1470   -7.0280 C   0  0  0  0  0  0  0  0  0  0  0  0
   -2.2530    0.9900   -5.7820 N   0  0  0  0  0  0  0  0  0  0  0  0
   -2.3920    1.4860   -7.9700 O   0  0  0  0  0  0  0  0  0  0  0  0
   -1.5090    0.6200   -4.7400 N   0  0  0  0  0  0  0  0  0  0  0  0
   -3.2750    1.1620   -5.6420 H   0  0  0  0  0  0  0  0  0  0  0  0
   -1.9510    0.5180   -3.8270 H   0  0  0  0  0  0  0  0  0  0  0  0
    0.7320   -0.4760   -1.2330 C   0  0  1  0  0  3  0  0  0  0  0  0
   -0.0250   -0.0080    0.0240 C   0  0  0  0  0  2  0  0  0  0  0  0
   -0.0840    1.5220    0.0920 C   0  0  0  0  0  1  0  0  0  0  0  0
    0.8880   -1.9730   -1.2150 C   0  0  0  0  0  3  0  0  0  0  0  0
   -0.1970   -2.7680   -1.3030 O   0  0  0  0  0  0  0  0  0  0  0  0
   -0.0980   -3.7000   -1.2920 H   0  0  0  0  0  0  0  0  0  0  0  0
    2.1100   -2.5260   -1.0990 O   0  0  0  0  0  0  0  0  0  0  0  0
    2.8680   -1.9780   -1.0370 H   0  0  0  0  0  0  0  0  0  0  0  0
  1  4  1  0  0  0  0
  1 14  1  0  0  0  0
  2  1  1  0  0  0  0
  3  2  2  0  0  0  0
  5 11  1  0  0  0  0
  5  2  1  0  0  0  0
  6  5  2  0  0  0  0
  7  8  1  0  0  0  0
  7  6  1  0  0  0  0
  8  9  1  0  0  0  0
  9 12  1  0  0  0  0
  9 11  1  0  0  0  0
 10  8  2  0  0  0  0
 11 13  1  0  0  0  0
 14 17  1  0  0  0  0
 14 15  1  1  0  0  0
 15 16  1  0  0  0  0
 17 20  1  0  0  0  0
 18 19  1  0  0  0  0
 18 17  1  0  0  0  0
 20 21  1  0  0  0  0
M  END
>  <REMARK>
  6 active torsions:
  status: ('A' for Active; 'I' for Inactive)
    1  A    between atoms: C_2  and  C_3 
    2  A    between atoms: C_3  and  N_4 
    3  A    between atoms: C_3  and  C_15 
       I    between atoms: N_4  and  C_5 
    4  A    between atoms: C_5  and  C_7 
    5  A    between atoms: C_15  and  O_16 
    6  A    between atoms: C_15  and  O_17 

>  <TORSDO>
F 6

$$$$
C:\Users\siddh\.mgltools\PyRx\Ligands\ZINC000034926112_uff_E=372.72.pdbqt
 OpenBabel04182118313D

 18 19  0  0  1  0  0  0  0  0999 V2000
   -1.2860    1.9840    0.0260 C   0  0  2  0  0  3  0  0  0  0  0  0
   -1.9710    1.8710   -1.3260 C   0  0  0  0  0  2  0  0  0  0  0  0
   -3.0550    3.3050   -1.4080 S   0  0  0  0  0  0  0  0  0  0  0  0
   -1.6360    4.2280   -0.7250 C   0  0  2  0  0  3  0  0  0  0  0  0
   -0.9700    3.3950    0.2860 N   0  0  0  0  0  0  0  0  0  0  0  0
   -1.3180    3.6230    1.2490 H   0  0  0  0  0  0  0  0  0  0  0  0
   -2.0770    5.5770   -0.1370 C   0  0  0  0  0  2  0  0  0  0  0  0
   -2.6170    6.4480   -1.1780 N   0  0  0  0  0  0  0  0  0  0  0  0
   -1.9210    6.8730   -2.2220 N   0  0  0  0  0  0  0  0  0  0  0  0
   -2.7230    7.6610   -2.9630 C   0  0  0  0  0  2  0  0  0  0  0  0
   -0.9480    6.6440   -2.4280 H   0  0  0  0  0  0  0  0  0  0  0  0
   -3.9650    7.7330   -2.3620 C   0  0  0  0  0  3  0  0  0  0  0  0
   -3.8630    6.9530   -1.2310 C   0  0  0  0  0  3  0  0  0  0  0  0
   -0.0440    1.1360    0.0780 C   0  0  0  0  0  3  0  0  0  0  0  0
   -0.1290   -0.1950   -0.1070 O   0  0  0  0  0  0  0  0  0  0  0  0
   -0.2840   -1.0560   -0.4450 H   0  0  0  0  0  0  0  0  0  0  0  0
    1.1610    1.7010    0.2920 O   0  0  0  0  0  0  0  0  0  0  0  0
    1.2270    2.6270    0.4220 H   0  0  0  0  0  0  0  0  0  0  0  0
  1 14  1  6  0  0  0
  1  5  1  0  0  0  0
  2  1  1  0  0  0  0
  3  2  1  0  0  0  0
  3  4  1  0  0  0  0
  4  7  1  1  0  0  0
  4  5  1  0  0  0  0
  5  6  1  0  0  0  0
  8  7  1  0  0  0  0
  9  8  1  0  0  0  0
 10 12  1  0  0  0  0
 10  9  1  0  0  0  0
 11  9  1  0  0  0  0
 12 13  2  0  0  0  0
 13  8  1  0  0  0  0
 14 17  1  0  0  0  0
 15 14  1  0  0  0  0
 16 15  1  0  0  0  0
 17 18  1  0  0  0  0
M  END
>  <REMARK>
  5 active torsions:
  status: ('A' for Active; 'I' for Inactive)
    1  A    between atoms: O_1  and  C_2 
    2  A    between atoms: C_2  and  O_3 
    3  A    between atoms: C_2  and  C_4 
    4  A    between atoms: C_7  and  C_8 
    5  A    between atoms: C_8  and  N_9 

>  <TORSDO>
F 5

$$$$
C:\Users\siddh\.mgltools\PyRx\Ligands\ZINC000034926111_uff_E=333.78.pdbqt
 OpenBabel04182118313D

 18 19  0  0  1  0  0  0  0  0999 V2000
   -0.0700   -0.1380   -0.0990 O   0  0  0  0  0  0  0  0  0  0  0  0
   -0.0310    1.2020    0.0310 C   0  0  0  0  0  3  0  0  0  0  0  0
   -0.1440   -1.0400   -0.3430 H   0  0  0  0  0  0  0  0  0  0  0  0
    1.1590    1.8220    0.1600 O   0  0  0  0  0  0  0  0  0  0  0  0
    1.1940    2.7540    0.2510 H   0  0  0  0  0  0  0  0  0  0  0  0
   -1.3100    1.9960    0.0220 C   0  0  1  0  0  3  0  0  0  0  0  0
   -1.0610    3.4210    0.1830 N   0  0  0  0  0  0  0  0  0  0  0  0
   -2.3280    4.1160   -0.0620 C   0  0  2  0  0  3  0  0  0  0  0  0
   -0.7100    3.6340    1.1470 H   0  0  0  0  0  0  0  0  0  0  0  0
   -3.2990    3.1370   -1.2800 S   0  0  0  0  0  0  0  0  0  0  0  0
   -2.0300    1.8510   -1.3010 C   0  0  0  0  0  2  0  0  0  0  0  0
   -2.0180    5.5300   -0.5800 C   0  0  0  0  0  2  0  0  0  0  0  0
   -3.2320    6.3260   -0.7750 N   0  0  0  0  0  0  0  0  0  0  0  0
   -4.2300    5.9830   -1.5750 N   0  0  0  0  0  0  0  0  0  0  0  0
   -5.1670    6.9470   -1.5100 C   0  0  0  0  0  2  0  0  0  0  0  0
   -4.2810    5.1360   -2.1410 H   0  0  0  0  0  0  0  0  0  0  0  0
   -4.7360    7.9370   -0.6490 C   0  0  0  0  0  3  0  0  0  0  0  0
   -3.5050    7.5120   -0.2000 C   0  0  0  0  0  3  0  0  0  0  0  0
  1  2  1  0  0  0  0
  2  4  1  0  0  0  0
  3  1  1  0  0  0  0
  4  5  1  0  0  0  0
  6  2  1  6  0  0  0
  6  7  1  0  0  0  0
  7  9  1  0  0  0  0
  8 12  1  6  0  0  0
  8  7  1  0  0  0  0
 10  8  1  0  0  0  0
 11 10  1  0  0  0  0
 11  6  1  0  0  0  0
 13 12  1  0  0  0  0
 13 18  1  0  0  0  0
 14 15  1  0  0  0  0
 14 13  1  0  0  0  0
 15 17  1  0  0  0  0
 16 14  1  0  0  0  0
 17 18  2  0  0  0  0
M  END
>  <REMARK>
  4 active torsions:
  status: ('A' for Active; 'I' for Inactive)
    1  A    between atoms: C_2  and  O_3 
    2  A    between atoms: C_2  and  C_4 
    3  A    between atoms: C_7  and  C_8 
    4  A    between atoms: C_8  and  N_9 

>  <TORSDO>
F 4

$$$$
C:\Users\siddh\.mgltools\PyRx\Ligands\ZINC000034552395_uff_E=335.26.pdbqt
 OpenBabel04182118313D

 20 21  0  0  1  0  0  0  0  0999 V2000
    0.6660   -2.0470    1.0720 C   0  0  0  0  0  0  0  0  0  0  0  0
    1.2510   -2.8590    2.0480 C   0  0  2  0  0  3  0  0  0  0  0  0
    1.0840   -4.1620    1.7230 N   0  0  0  0  0  0  0  0  0  0  0  0
    0.4160   -4.1960    0.5790 N   0  0  0  0  0  0  0  0  0  0  0  0
    0.1510   -2.9520    0.1630 C   0  0  0  0  0  0  0  0  0  0  0  0
   -0.5280   -2.7190   -0.9910 N   0  0  0  0  0  0  0  0  0  0  0  0
   -0.7220   -1.7650   -1.2940 H   0  0  0  0  0  0  0  0  0  0  0  0
   -0.9470   -3.7860   -1.7430 C   0  0  0  0  0  0  0  0  0  0  0  0
   -1.6950   -3.5550   -3.0180 C   0  0  0  0  0  1  0  0  0  0  0  0
   -0.6740   -5.1080   -1.3190 C   0  0  0  0  0  3  0  0  0  0  0  0
    0.0280   -5.3010   -0.1220 C   0  0  0  0  0  0  0  0  0  0  0  0
    0.2840   -6.4220    0.2810 O   0  0  0  0  0  0  0  0  0  0  0  0
    1.3990   -4.9390    2.2390 H   0  0  0  0  0  0  0  0  0  0  0  0
    0.6170   -0.5690    1.0300 C   0  0  0  0  0  0  0  0  0  0  0  0
    1.1340    0.0790    1.9280 O   0  0  0  0  0  0  0  0  0  0  0  0
    0.0030    0.0720    0.0050 O   0  0  0  0  0  0  0  0  0  0  0  0
   -0.0540    1.4510   -0.0510 C   0  0  0  0  0  1  0  0  0  0  0  0
    1.9260   -2.4330    3.2180 N   0  0  0  0  0  0  0  0  0  0  0  0
    2.0390   -1.4370    3.4430 H   0  0  0  0  0  0  0  0  0  0  0  0
    2.3170   -3.1280    3.8680 H   0  0  0  0  0  0  0  0  0  0  0  0
  1  2  1  0  0  0  0
  2 18  1  1  0  0  0
  3  2  1  0  0  0  0
  3 13  1  0  0  0  0
  4  3  1  0  0  0  0
  5  4  1  0  0  0  0
  5  1  2  0  0  0  0
  6  5  1  0  0  0  0
  7  6  1  0  0  0  0
  8 10  2  0  0  0  0
  8  6  1  0  0  0  0
  9  8  1  0  0  0  0
 10 11  1  0  0  0  0
 11 12  2  0  0  0  0
 11  4  1  0  0  0  0
 14  1  1  0  0  0  0
 14 15  2  0  0  0  0
 16 14  1  0  0  0  0
 17 16  1  0  0  0  0
 18 19  1  0  0  0  0
 18 20  1  0  0  0  0
M  END
>  <REMARK>
  3 active torsions:
  status: ('A' for Active; 'I' for Inactive)
    1  A    between atoms: O_2  and  C_3 
    2  A    between atoms: C_3  and  C_5 
    3  A    between atoms: C_6  and  N_7 

>  <TORSDO>
F 3

$$$$
C:\Users\siddh\.mgltools\PyRx\Ligands\ZINC000034480817_uff_E=204.64.pdbqt
 OpenBabel04182118313D

 17 17  0  0  0  0  0  0  0  0999 V2000
    0.1510    0.0460   -0.0240 C   0  0  0  0  0  0  0  0  0  0  0  0
   -1.1440   -0.5770    0.1130 C   0  0  0  0  0  0  0  0  0  0  0  0
   -1.2020   -1.9960    0.1230 C   0  0  0  0  0  0  0  0  0  0  0  0
   -2.2670   -2.5800    0.2180 O   0  0  0  0  0  0  0  0  0  0  0  0
   -0.0660   -2.7370    0.0050 N   0  0  0  0  0  0  0  0  0  0  0  0
    1.1540   -2.1800   -0.1280 C   0  0  0  0  0  3  0  0  0  0  0  0
    1.3210   -0.7850   -0.1460 C   0  0  0  0  0  0  0  0  0  0  0  0
   -0.1390   -3.7190    0.0160 H   0  0  0  0  0  0  0  0  0  0  0  0
    0.2750    1.4700   -0.0370 N   0  0  0  0  0  0  0  0  0  0  0  0
    1.0390    1.9470   -0.5240 H   0  0  0  0  0  0  0  0  0  0  0  0
   -0.3880    2.0820    0.4460 H   0  0  0  0  0  0  0  0  0  0  0  0
    2.6670   -0.2680   -0.2390 N   0  0  0  0  0  0  0  0  0  0  0  0
    3.5830   -1.0210   -0.3880 O   0  0  0  0  0  0  0  0  0  0  0  0
    2.9040    0.8860   -0.0700 O   0  0  0  0  0  0  0  0  0  0  0  0
   -2.3790    0.1820    0.1900 N   0  0  0  0  0  0  0  0  0  0  0  0
   -2.3990    1.3540   -0.0180 O   0  0  0  0  0  0  0  0  0  0  0  0
   -3.4190   -0.3770    0.3710 O   0  0  0  0  0  0  0  0  0  0  0  0
  1  2  2  0  0  0  0
  2  3  1  0  0  0  0
  2 15  1  0  0  0  0
  3  4  2  0  0  0  0
  5  8  1  0  0  0  0
  5  3  1  0  0  0  0
  6  5  1  0  0  0  0
  7  6  2  0  0  0  0
  7  1  1  0  0  0  0
  9  1  1  0  0  0  0
  9 11  1  0  0  0  0
 10  9  1  0  0  0  0
 12  7  1  0  0  0  0
 12 14  2  0  0  0  0
 13 12  2  0  0  0  0
 15 17  2  0  0  0  0
 16 15  2  0  0  0  0
M  END
>  <REMARK>
  3 active torsions:
  status: ('A' for Active; 'I' for Inactive)
    1  A    between atoms: N_1  and  C_2 
    2  A    between atoms: C_3  and  N_4 
    3  A    between atoms: C_11  and  N_12 

>  <TORSDO>
F 3

$$$$
C:\Users\siddh\.mgltools\PyRx\Ligands\ZINC000034462800_uff_E=615.45.pdbqt
 OpenBabel04182118313D

 19 21  0  0  1  0  0  0  0  0999 V2000
   -0.0120    0.0040    0.0080 O   0  0  0  0  0  0  0  0  0  0  0  0
   -0.0300    1.2260    0.0130 C   0  0  0  0  0  0  0  0  0  0  0  0
   -1.2240    2.0720    0.0310 C   0  0  0  0  0  0  0  0  0  0  0  0
   -2.5840    1.7700    0.0480 C   0  0  0  0  0  3  0  0  0  0  0  0
   -3.4980    2.8390    0.0670 C   0  0  0  0  0  3  0  0  0  0  0  0
   -3.0370    4.1750    0.0670 C   0  0  0  0  0  3  0  0  0  0  0  0
   -1.6570    4.4530    0.0480 C   0  0  0  0  0  3  0  0  0  0  0  0
   -0.7740    3.3750    0.0310 C   0  0  0  0  0  0  0  0  0  0  0  0
    0.6880    3.3050    0.0140 C   0  0  0  0  0  0  0  0  0  0  0  0
    1.4560    4.2550    0.0080 O   0  0  0  0  0  0  0  0  0  0  0  0
    1.0770    2.0070    0.0070 N   0  0  0  0  0  0  0  0  0  0  0  0
    2.4480    1.5340   -0.0030 C   0  0  0  0  0  2  0  0  0  0  0  0
    2.9460    1.3680    1.3970 C   0  0  2  0  0  3  0  0  0  0  0  0
    2.8440    0.2410    2.1210 N   0  0  0  0  0  0  0  0  0  0  0  0
    3.3980    0.5200    3.2890 N   0  0  0  0  0  0  0  0  0  0  0  0
    2.4410   -0.6130    1.8400 H   0  0  0  0  0  0  0  0  0  0  0  0
    3.8260    1.7740    3.2850 N   0  0  0  0  0  0  0  0  0  0  0  0
    3.5550    2.3280    2.1140 N   0  0  0  0  0  0  0  0  0  0  0  0
    3.7640    3.2810    1.8190 H   0  0  0  0  0  0  0  0  0  0  0  0
  1  2  2  0  0  0  0
  2  3  1  0  0  0  0
  3  8  2  0  0  0  0
  3  4  1  0  0  0  0
  4  5  2  0  0  0  0
  5  6  1  0  0  0  0
  7  6  2  0  0  0  0
  8  7  1  0  0  0  0
  9  8  1  0  0  0  0
 10  9  2  0  0  0  0
 11  2  1  0  0  0  0
 11  9  1  0  0  0  0
 12 11  1  0  0  0  0
 13 12  1  1  0  0  0
 13 18  1  0  0  0  0
 13 14  1  0  0  0  0
 14 15  1  0  0  0  0
 16 14  1  0  0  0  0
 17 15  2  0  0  0  0
 18 17  1  0  0  0  0
 19 18  1  0  0  0  0
M  END
>  <REMARK>
  2 active torsions:
  status: ('A' for Active; 'I' for Inactive)
    1  A    between atoms: N_11  and  C_12 
    2  A    between atoms: C_12  and  C_13 

>  <TORSDO>
F 2

$$$$
C:\Users\siddh\.mgltools\PyRx\Ligands\ZINC000034383907_uff_E=314.19.pdbqt
 OpenBabel04182118313D

 19 19  0  0  1  0  0  0  0  0999 V2000
   -1.3020    1.9570    0.0030 C   0  0  2  0  0  3  0  0  0  0  0  0
   -1.2010    3.2340   -0.7400 N   0  0  0  0  0  4  0  0  0  0  0  0
   -0.4690    3.8470   -0.3080 H   0  0  0  0  0  0  0  0  0  0  0  0
   -0.9230    3.0370   -1.7300 H   0  0  0  0  0  0  0  0  0  0  0  0
   -2.4840    3.9540   -0.7560 C   0  0  0  0  0  2  0  0  0  0  0  0
   -2.9480    4.2720    0.6710 C   0  0  0  0  0  2  0  0  0  0  0  0
   -3.0840    2.9730    1.4650 C   0  0  0  0  0  2  0  0  0  0  0  0
   -1.7490    2.2130    1.4670 C   0  0  1  0  0  3  0  0  0  0  0  0
   -1.9780    0.6110    2.4130 P   0  0  0  0  0  0  0  0  0  0  0  0
   -0.6500   -0.1860    2.5090 O   0  0  0  0  0  0  0  0  0  0  0  0
   -3.1030   -0.4930    1.6830 O   0  0  0  0  0  0  0  0  0  0  0  0
   -2.8590   -0.6380    0.7560 H   0  0  0  0  0  0  0  0  0  0  0  0
   -2.4750    0.8210    4.0630 O   0  0  0  0  0  0  0  0  0  0  0  0
   -2.5820   -0.0990    4.4160 H   0  0  0  0  0  0  0  0  0  0  0  0
    0.0240    1.2390   -0.0490 C   0  0  0  0  0  3  0  0  0  0  0  0
    0.1040    0.0130   -0.6030 O   0  0  0  0  0  0  0  0  0  0  0  0
    0.2210   -0.4520   -1.4080 H   0  0  0  0  0  0  0  0  0  0  0  0
    1.1330    1.8140    0.4530 O   0  0  0  0  0  0  0  0  0  0  0  0
    1.0840    2.6660    0.8390 H   0  0  0  0  0  0  0  0  0  0  0  0
  1 15  1  1  0  0  0
  1  8  1  0  0  0  0
  2  3  1  0  0  0  0
  2  1  1  0  0  0  0
  4  2  1  0  0  0  0
  5  2  1  0  0  0  0
  5  6  1  0  0  0  0
  6  7  1  0  0  0  0
  7  8  1  0  0  0  0
  8  9  1  1  0  0  0
  9 10  2  0  0  0  0
  9 13  1  0  0  0  0
 11  9  1  0  0  0  0
 12 11  1  0  0  0  0
 13 14  1  0  0  0  0
 15 18  1  0  0  0  0
 16 15  1  0  0  0  0
 17 16  1  0  0  0  0
 18 19  1  0  0  0  0
M  END
>  <REMARK>
  6 active torsions:
  status: ('A' for Active; 'I' for Inactive)
    1  A    between atoms: O_1  and  C_2 
    2  A    between atoms: C_2  and  O_3 
    3  A    between atoms: C_2  and  C_4 
    4  A    between atoms: C_11  and  P_12 
    5  A    between atoms: P_12  and  O_14 
    6  A    between atoms: P_12  and  O_15 

>  <TORSDO>
F 6

$$$$
C:\Users\siddh\.mgltools\PyRx\Ligands\ZINC000034378882_uff_E=185.21.pdbqt
 OpenBabel04182118313D

 17 17  0  0  1  0  0  0  0  0999 V2000
   -1.3520   -0.2730   -2.3730 N   0  0  0  0  0  0  0  0  0  0  0  0
   -0.0460   -0.6980   -2.3450 C   0  0  0  0  0  0  0  0  0  0  0  0
    0.5660   -0.6480   -1.2870 O   0  0  0  0  0  0  0  0  0  0  0  0
    0.6030   -1.1540   -3.4810 N   0  0  0  0  0  0  0  0  0  0  0  0
    2.0010   -1.5720   -3.4210 C   0  0  0  0  0  2  0  0  0  0  0  0
    2.0830   -3.0150   -3.9340 C   0  0  0  0  0  2  0  0  0  0  0  0
    1.5380   -3.1140   -5.2400 O   0  0  0  0  0  0  0  0  0  0  0  0
    0.1620   -2.7700   -5.2200 C   0  0  0  0  0  2  0  0  0  0  0  0
   -0.0220   -1.3110   -4.7910 C   0  0  0  0  0  2  0  0  0  0  0  0
   -1.8760   -0.2490   -3.2460 H   0  0  0  0  0  0  0  0  0  0  0  0
   -2.0330    0.2000   -1.1710 C   0  0  2  0  0  3  0  0  0  0  0  0
   -2.4380   -1.0000   -0.3050 C   0  0  0  0  0  1  0  0  0  0  0  0
   -3.2630    1.0210   -1.5080 C   0  0  0  0  0  3  0  0  0  0  0  0
   -3.9750    1.5880   -0.5160 O   0  0  0  0  0  0  0  0  0  0  0  0
   -4.7360    2.0970   -0.7170 H   0  0  0  0  0  0  0  0  0  0  0  0
   -3.6410    1.2270   -2.7860 O   0  0  0  0  0  0  0  0  0  0  0  0
   -3.1550    0.8390   -3.4870 H   0  0  0  0  0  0  0  0  0  0  0  0
  1  2  1  0  0  0  0
  1 11  1  0  0  0  0
  2  3  2  0  0  0  0
  4  5  1  0  0  0  0
  4  2  1  0  0  0  0
  6  5  1  0  0  0  0
  7  8  1  0  0  0  0
  7  6  1  0  0  0  0
  8  9  1  0  0  0  0
  9  4  1  0  0  0  0
 10  1  1  0  0  0  0
 11 12  1  1  0  0  0
 13 11  1  0  0  0  0
 13 14  1  0  0  0  0
 15 14  1  0  0  0  0
 16 13  1  0  0  0  0
 17 16  1  0  0  0  0
M  END
>  <REMARK>
  4 active torsions:
  status: ('A' for Active; 'I' for Inactive)
    1  A    between atoms: C_2  and  N_3 
    2  A    between atoms: C_2  and  C_12 
       I    between atoms: N_3  and  C_4 
       I    between atoms: C_4  and  N_6 
    3  A    between atoms: C_12  and  O_13 
    4  A    between atoms: C_12  and  O_14 

>  <TORSDO>
F 4

$$$$
C:\Users\siddh\.mgltools\PyRx\Ligands\ZINC000034132551_uff_E=324.40.pdbqt
 OpenBabel04182118313D

 19 18  0  0  1  0  0  0  0  0999 V2000
   -4.3890   -5.9050   -0.1540 C   0  0  0  0  0  2  0  0  0  0  0  0
   -4.2790   -4.3810    0.0140 C   0  0  2  0  0  3  0  0  0  0  0  0
   -2.8140   -3.9290    0.0160 C   0  0  0  0  0  2  0  0  0  0  0  0
   -2.7760   -2.5210    0.0590 O   0  0  0  0  0  0  0  0  0  0  0  0
   -1.4360   -2.0820    0.0180 C   0  0  0  0  0  2  0  0  0  0  0  0
   -1.4310   -0.5560    0.0170 C   0  0  0  0  0  2  0  0  0  0  0  0
   -0.0030   -0.0010    0.0020 C   0  0  0  0  0  2  0  0  0  0  0  0
   -0.0140    1.5240    0.0100 C   0  0  0  0  0  1  0  0  0  0  0  0
   -4.9320   -3.9500    1.1830 O   0  0  0  0  0  0  0  0  0  0  0  0
   -4.4860   -4.3840    1.9570 H   0  0  0  0  0  0  0  0  0  0  0  0
   -5.7910   -6.3120   -0.2780 N   0  0  0  0  0  0  0  0  0  0  0  0
   -6.4730   -6.2790   -1.5690 C   0  0  0  0  0  1  0  0  0  0  0  0
   -6.7070   -6.7870    1.1700 S   0  0  0  0  0  0  0  0  0  0  0  0
   -7.9260   -7.9280    0.7340 O   0  0  0  0  0  0  0  0  0  0  0  0
   -7.5110   -8.7090    0.3370 H   0  0  0  0  0  0  0  0  0  0  0  0
   -5.6520   -7.5230    2.3190 O   0  0  0  0  0  0  0  0  0  0  0  0
   -5.2350   -8.3030    1.9220 H   0  0  0  0  0  0  0  0  0  0  0  0
   -7.4480   -5.4000    1.8760 O   0  0  0  0  0  0  0  0  0  0  0  0
   -8.0420   -4.9860    1.2300 H   0  0  0  0  0  0  0  0  0  0  0  0
  2  1  1  1  0  0  0
  2  3  1  0  0  0  0
  2  9  1  0  0  0  0
  3  4  1  0  0  0  0
  5  4  1  0  0  0  0
  6  5  1  0  0  0  0
  7  8  1  0  0  0  0
  7  6  1  0  0  0  0
  9 10  1  0  0  0  0
 11  1  1  0  0  0  0
 11 13  1  0  0  0  0
 12 11  1  0  0  0  0
 13 18  1  0  0  0  0
 13 16  1  0  0  0  0
 14 13  1  0  0  0  0
 15 14  1  0  0  0  0
 17 16  1  0  0  0  0
 19 18  1  0  0  0  0
M  END
>  <REMARK>
  12 active torsions:
  status: ('A' for Active; 'I' for Inactive)
    1  A    between atoms: C_2  and  C_3 
    2  A    between atoms: C_3  and  C_4 
    3  A    between atoms: C_4  and  O_5 
    4  A    between atoms: O_5  and  C_6 
    5  A    between atoms: C_6  and  C_7 
    6  A    between atoms: C_7  and  O_8 
    7  A    between atoms: C_7  and  C_9 
    8  A    between atoms: C_9  and  N_10 
    9  A    between atoms: N_10  and  S_12 
   10  A    between atoms: S_12  and  O_13 
   11  A    between atoms: S_12  and  O_14 
   12  A    between atoms: S_12  and  O_15 

>  <TORSDO>
F 12

$$$$
C:\Users\siddh\.mgltools\PyRx\Ligands\ZINC000034120624_uff_E=206.67.pdbqt
 OpenBabel04182118313D

 22 22  0  0  1  0  0  0  0  0999 V2000
   -0.0400   -0.1120    2.4660 N   0  0  0  0  0  0  0  0  0  0  0  0
   -0.0850   -0.7720    3.6650 C   0  0  0  0  0  0  0  0  0  0  0  0
   -0.1440   -1.9910    3.7060 O   0  0  0  0  0  0  0  0  0  0  0  0
   -0.1250    0.9140    2.4850 H   0  0  0  0  0  0  0  0  0  0  0  0
   -0.1400    0.0100    4.9670 C   0  0  1  0  0  3  0  0  0  0  0  0
   -0.4040   -0.8360    6.0650 O   0  0  0  0  0  0  0  0  0  0  0  0
    0.2850   -1.5480    6.0960 H   0  0  0  0  0  0  0  0  0  0  0  0
    1.1510    0.8350    5.1980 C   0  0  2  0  0  3  0  0  0  0  0  0
    2.3000    0.0240    5.1280 O   0  0  0  0  0  0  0  0  0  0  0  0
    2.2810   -0.6190    5.8820 H   0  0  0  0  0  0  0  0  0  0  0  0
    1.0950    1.5940    6.5040 C   0  0  0  0  0  3  0  0  0  0  0  0
    2.0330    1.3970    7.4510 O   0  0  0  0  0  0  0  0  0  0  0  0
    1.9910    1.8710    8.2580 H   0  0  0  0  0  0  0  0  0  0  0  0
    0.1020    2.4750    6.7280 O   0  0  0  0  0  0  0  0  0  0  0  0
   -0.5540    2.6180    6.0750 H   0  0  0  0  0  0  0  0  0  0  0  0
    0.0070   -0.7720    1.1870 C   0  0  0  0  0  0  0  0  0  0  0  0
   -0.5790   -0.1580    0.0470 C   0  0  0  0  0  0  0  0  0  0  0  0
   -1.2530    1.1850    0.1410 C   0  0  0  0  0  1  0  0  0  0  0  0
   -0.5610   -0.8270   -1.1910 C   0  0  0  0  0  3  0  0  0  0  0  0
    0.0480   -2.0750   -1.3140 C   0  0  0  0  0  3  0  0  0  0  0  0
    0.6460   -2.6720   -0.2090 C   0  0  0  0  0  3  0  0  0  0  0  0
    0.6270   -2.0340    1.0310 C   0  0  0  0  0  3  0  0  0  0  0  0
  1  4  1  0  0  0  0
  1  2  1  0  0  0  0
  2  3  2  0  0  0  0
  5  2  1  6  0  0  0
  5  8  1  0  0  0  0
  5  6  1  0  0  0  0
  6  7  1  0  0  0  0
  8  9  1  1  0  0  0
  8 11  1  0  0  0  0
  9 10  1  0  0  0  0
 11 14  1  0  0  0  0
 11 12  1  0  0  0  0
 12 13  1  0  0  0  0
 15 14  1  0  0  0  0
 16  1  1  0  0  0  0
 17 18  1  0  0  0  0
 17 16  2  0  0  0  0
 19 17  1  0  0  0  0
 20 19  2  0  0  0  0
 20 21  1  0  0  0  0
 21 22  2  0  0  0  0
 22 16  1  0  0  0  0
M  END
>  <REMARK>
  8 active torsions:
  status: ('A' for Active; 'I' for Inactive)
    1  A    between atoms: C_7  and  N_8 
       I    between atoms: N_8  and  C_9 
    2  A    between atoms: C_9  and  C_11 
    3  A    between atoms: C_11  and  O_12 
    4  A    between atoms: C_11  and  C_13 
    5  A    between atoms: C_13  and  O_14 
    6  A    between atoms: C_13  and  C_15 
    7  A    between atoms: C_15  and  O_16 
    8  A    between atoms: C_15  and  O_17 

>  <TORSDO>
F 8

$$$$
C:\Users\siddh\.mgltools\PyRx\Ligands\ZINC000032936522_uff_E=533.67.pdbqt
 OpenBabel04182118313D

 19 19  0  0  0  0  0  0  0  0999 V2000
   -4.0190    1.5440    0.0320 S   0  0  0  0  0  0  0  0  0  0  0  0
   -4.1790    2.5050    1.2210 O   0  0  0  0  0  0  0  0  0  0  0  0
   -4.1930    2.5160   -1.1470 O   0  0  0  0  0  0  0  0  0  0  0  0
   -2.3310    0.8740    0.0190 C   0  0  0  0  0  2  0  0  0  0  0  0
   -1.2490    1.9530    0.0180 C   0  0  0  0  0  2  0  0  0  0  0  0
    0.1300    1.3450    0.0070 C   0  0  0  0  0  3  0  0  0  0  0  0
    0.3000    0.0060   -0.0010 O   0  0  0  0  0  0  0  0  0  0  0  0
    0.6140   -0.8770   -0.0150 H   0  0  0  0  0  0  0  0  0  0  0  0
    1.2110    2.1470    0.0050 O   0  0  0  0  0  0  0  0  0  0  0  0
    1.1030    3.0780    0.0110 H   0  0  0  0  0  0  0  0  0  0  0  0
   -5.3860    0.3500    0.0350 C   0  0  0  0  0  2  0  0  0  0  0  0
   -6.7350    1.0020    0.0290 C   0  0  0  0  0  0  0  0  0  0  0  0
   -7.3820    1.2860   -1.1830 C   0  0  0  0  0  2  0  0  0  0  0  0
   -8.6290    1.8340   -1.1850 N   0  0  0  0  0  0  0  0  0  0  0  0
   -9.2760    2.1180   -0.0200 C   0  0  0  0  0  3  0  0  0  0  0  0
   -8.6650    1.8530    1.2080 C   0  0  0  0  0  3  0  0  0  0  0  0
   -7.3890    1.2910    1.2320 C   0  0  0  0  0  3  0  0  0  0  0  0
   -9.2300    2.0890   -2.3440 O   0  0  0  0  0  0  0  0  0  0  0  0
  -10.0870    2.4660   -2.3550 H   0  0  0  0  0  0  0  0  0  0  0  0
  1 11  1  0  0  0  0
  1  2  2  0  0  0  0
  3  1  2  0  0  0  0
  4  1  1  0  0  0  0
  5  4  1  0  0  0  0
  6  5  1  0  0  0  0
  7  6  1  0  0  0  0
  8  7  1  0  0  0  0
  9  6  1  0  0  0  0
  9 10  1  0  0  0  0
 12 11  1  0  0  0  0
 12 17  2  0  0  0  0
 13 12  1  0  0  0  0
 14 13  1  0  0  0  0
 14 15  1  0  0  0  0
 15 16  2  0  0  0  0
 16 17  1  0  0  0  0
 18 14  1  0  0  0  0
 19 18  1  0  0  0  0
M  END
>  <REMARK>
  8 active torsions:
  status: ('A' for Active; 'I' for Inactive)
    1  A    between atoms: O_1  and  C_2 
    2  A    between atoms: C_2  and  O_3 
    3  A    between atoms: C_2  and  C_4 
    4  A    between atoms: C_4  and  C_5 
    5  A    between atoms: C_5  and  S_6 
    6  A    between atoms: S_6  and  C_9 
    7  A    between atoms: C_9  and  C_10 
    8  A    between atoms: N_14  and  O_15 

>  <TORSDO>
F 8

$$$$
C:\Users\siddh\.mgltools\PyRx\Ligands\ZINC000032918143_uff_E=786.14.pdbqt
 OpenBabel04182118313D

 20 21  0  0  1  0  0  0  0  0999 V2000
   -1.1750    1.9940   -0.0830 C   0  0  2  0  0  3  0  0  0  0  0  0
   -1.9310    1.8720   -1.4000 C   0  0  0  0  0  2  0  0  0  0  0  0
   -2.6710    3.1880   -1.4000 C   0  0  0  0  0  2  0  0  0  0  0  0
   -1.5680    4.1470   -0.9630 C   0  0  0  0  0  2  0  0  0  0  0  0
   -0.6810    3.3780   -0.0760 N   0  0  0  0  0  0  0  0  0  0  0  0
   -0.4910    4.0760    1.5550 S   0  0  0  0  0  0  0  0  0  0  0  0
    0.5950    3.2200    2.2250 O   0  0  0  0  0  0  0  0  0  0  0  0
    0.3100    5.3670    1.3260 O   0  0  0  0  0  0  0  0  0  0  0  0
   -1.8380    4.3710    2.7000 C   0  0  0  0  0  0  0  0  0  0  0  0
   -2.2520    3.4850    3.6270 N   0  0  0  0  0  0  0  0  0  0  0  0
   -3.2170    4.1340    4.3130 C   0  0  0  0  0  2  0  0  0  0  0  0
   -1.9130    2.5350    3.7770 H   0  0  0  0  0  0  0  0  0  0  0  0
   -3.4120    5.3850    3.8520 N   0  0  0  0  0  0  0  0  0  0  0  0
   -2.5460    5.5400    2.8370 C   0  0  0  0  0  3  0  0  0  0  0  0
   -4.0880    6.0910    4.2160 H   0  0  0  0  0  0  0  0  0  0  0  0
   -0.0570    0.9920    0.0080 C   0  0  0  0  0  3  0  0  0  0  0  0
   -0.3330   -0.3260   -0.0080 O   0  0  0  0  0  0  0  0  0  0  0  0
   -0.8220   -1.1250   -0.0370 H   0  0  0  0  0  0  0  0  0  0  0  0
    1.2250    1.4000    0.0900 O   0  0  0  0  0  0  0  0  0  0  0  0
    1.4250    2.3160    0.1020 H   0  0  0  0  0  0  0  0  0  0  0  0
  1  5  1  0  0  0  0
  1 16  1  6  0  0  0
  2  3  1  0  0  0  0
  2  1  1  0  0  0  0
  3  4  1  0  0  0  0
  4  5  1  0  0  0  0
  5  6  1  0  0  0  0
  6  7  2  0  0  0  0
  6  9  1  0  0  0  0
  8  6  2  0  0  0  0
  9 14  2  0  0  0  0
  9 10  1  0  0  0  0
 10 12  1  0  0  0  0
 10 11  1  0  0  0  0
 13 15  1  0  0  0  0
 13 11  1  0  0  0  0
 14 13  1  0  0  0  0
 16 19  1  0  0  0  0
 17 16  1  0  0  0  0
 18 17  1  0  0  0  0
 19 20  1  0  0  0  0
M  END
>  <REMARK>
  5 active torsions:
  status: ('A' for Active; 'I' for Inactive)
    1  A    between atoms: O_1  and  C_2 
    2  A    between atoms: C_2  and  O_3 
    3  A    between atoms: C_2  and  C_4 
    4  A    between atoms: N_8  and  S_9 
    5  A    between atoms: S_9  and  C_12 

>  <TORSDO>
F 5

$$$$
C:\Users\siddh\.mgltools\PyRx\Ligands\ZINC000032627937_uff_E=735.28.pdbqt
 OpenBabel04182118313D

 16 17  0  0  0  0  0  0  0  0999 V2000
    0.0110    1.4730    0.0040 C   0  0  0  0  0  1  0  0  0  0  0  0
    0.0390   -0.0220    0.0060 C   0  0  0  0  0  0  0  0  0  0  0  0
   -1.0590   -0.8700    0.0230 C   0  0  0  0  0  0  0  0  0  0  0  0
   -0.5570   -2.1210    0.0120 C   0  0  0  0  0  0  0  0  0  0  0  0
    0.8130   -2.0210    0.0010 C   0  0  0  0  0  0  0  0  0  0  0  0
    1.7770   -3.1610   -0.0280 C   0  0  0  0  0  1  0  0  0  0  0  0
    1.1450   -0.7450   -0.0040 O   0  0  0  0  0  0  0  0  0  0  0  0
   -1.6340   -3.4860   -0.0110 S   0  0  0  0  0  0  0  0  0  0  0  0
   -1.9050   -4.1250   -1.3800 O   0  0  0  0  0  0  0  0  0  0  0  0
   -1.2810   -4.6460    0.9310 O   0  0  0  0  0  0  0  0  0  0  0  0
   -3.2080   -2.9050    0.5470 N   0  0  0  0  0  0  0  0  0  0  0  0
   -3.4660   -1.5660    0.1900 N   0  0  0  0  0  0  0  0  0  0  0  0
   -2.5140   -0.5830    0.0160 C   0  0  0  0  0  0  0  0  0  0  0  0
   -2.8810    0.5670   -0.1690 O   0  0  0  0  0  0  0  0  0  0  0  0
   -4.4540   -1.2770    0.1560 H   0  0  0  0  0  0  0  0  0  0  0  0
   -3.2710   -3.0060    1.5600 H   0  0  0  0  0  0  0  0  0  0  0  0
  1  2  1  0  0  0  0
  2  3  2  0  0  0  0
  4  3  1  0  0  0  0
  5  4  2  0  0  0  0
  6  5  1  0  0  0  0
  7  5  1  0  0  0  0
  7  2  1  0  0  0  0
  8  4  1  0  0  0  0
  8 11  1  0  0  0  0
  8 10  2  0  0  0  0
  9  8  2  0  0  0  0
 11 16  1  0  0  0  0
 12 11  1  0  0  0  0
 13  3  1  0  0  0  0
 13 12  1  0  0  0  0
 14 13  2  0  0  0  0
 15 12  1  0  0  0  0
M  END
>  <REMARK>
  0 active torsions:
  status: ('A' for Active; 'I' for Inactive)

>  <TORSDO>
F 0

$$$$
C:\Users\siddh\.mgltools\PyRx\Ligands\ZINC000032627188_uff_E=389.56.pdbqt
 OpenBabel04182118313D

 21 22  0  0  0  0  0  0  0  0999 V2000
   -0.0550    1.5680    0.0750 C   0  0  0  0  0  1  0  0  0  0  0  0
   -0.0310    0.0590    0.0550 C   0  0  0  0  0  0  0  0  0  0  0  0
    0.0210   -0.6680   -1.1750 C   0  0  0  0  0  0  0  0  0  0  0  0
    0.0680   -2.0960   -1.1400 C   0  0  0  0  0  0  0  0  0  0  0  0
    0.1120   -2.7330   -2.1800 O   0  0  0  0  0  0  0  0  0  0  0  0
    0.0550   -2.7700    0.0630 N   0  0  0  0  0  0  0  0  0  0  0  0
    0.0130   -2.0590    1.2140 C   0  0  0  0  0  0  0  0  0  0  0  0
   -0.0260   -0.6900    1.2430 C   0  0  0  0  0  0  0  0  0  0  0  0
   -0.0420   -0.3780    2.5950 C   0  0  0  0  0  0  0  0  0  0  0  0
   -0.0670    0.7330    3.0930 O   0  0  0  0  0  0  0  0  0  0  0  0
   -0.0140   -1.5300    3.3190 N   0  0  0  0  0  0  0  0  0  0  0  0
    0.0170   -2.5510    2.4710 N   0  0  0  0  0  0  0  0  0  0  0  0
    0.0570   -3.9540    2.8680 C   0  0  0  0  0  1  0  0  0  0  0  0
    0.0840   -3.8140    0.0840 H   0  0  0  0  0  0  0  0  0  0  0  0
   -0.0130   -1.6140    4.3610 H   0  0  0  0  0  0  0  0  0  0  0  0
    0.0430    0.0440   -2.5180 C   0  0  0  0  0  2  0  0  0  0  0  0
    1.4340    0.1460   -3.0800 C   0  0  0  0  0  3  0  0  0  0  0  0
    2.4980   -0.3160   -2.3920 O   0  0  0  0  0  0  0  0  0  0  0  0
    3.3580   -0.2450   -2.7550 H   0  0  0  0  0  0  0  0  0  0  0  0
    1.6260    0.7440   -4.2710 O   0  0  0  0  0  0  0  0  0  0  0  0
    0.8920    1.0680   -4.7560 H   0  0  0  0  0  0  0  0  0  0  0  0
  2  1  1  0  0  0  0
  2  8  1  0  0  0  0
  3  4  1  0  0  0  0
  3  2  2  0  0  0  0
  4  6  1  0  0  0  0
  5  4  2  0  0  0  0
  6 14  1  0  0  0  0
  6  7  1  0  0  0  0
  7  8  2  0  0  0  0
  7 12  1  0  0  0  0
  8  9  1  0  0  0  0
  9 10  2  0  0  0  0
  9 11  1  0  0  0  0
 11 15  1  0  0  0  0
 12 13  1  0  0  0  0
 12 11  1  0  0  0  0
 16  3  1  0  0  0  0
 17 16  1  0  0  0  0
 17 18  1  0  0  0  0
 19 18  1  0  0  0  0
 20 17  1  0  0  0  0
 21 20  1  0  0  0  0
M  END
>  <REMARK>
  4 active torsions:
  status: ('A' for Active; 'I' for Inactive)
    1  A    between atoms: C_3  and  C_4 
    2  A    between atoms: C_4  and  C_5 
    3  A    between atoms: C_5  and  O_6 
    4  A    between atoms: C_5  and  O_7 

>  <TORSDO>
F 4

$$$$
C:\Users\siddh\.mgltools\PyRx\Ligands\ZINC000032625209_uff_E=160.66.pdbqt
 OpenBabel04182118313D

 19 20  0  0  0  0  0  0  0  0999 V2000
    0.0670   -0.0860    0.1740 O   0  0  0  0  0  0  0  0  0  0  0  0
    0.0060    1.2560    0.0570 C   0  0  0  0  0  3  0  0  0  0  0  0
    0.1810   -0.9900    0.3930 H   0  0  0  0  0  0  0  0  0  0  0  0
    1.1460    1.9700   -0.0040 O   0  0  0  0  0  0  0  0  0  0  0  0
    1.1110    2.9020   -0.0860 H   0  0  0  0  0  0  0  0  0  0  0  0
   -1.3180    1.9570   -0.0600 C   0  0  0  0  0  2  0  0  0  0  0  0
   -2.4400    0.9900    0.0130 N   0  0  0  0  0  0  0  0  0  0  0  0
   -2.9270    0.5290    1.2250 C   0  0  0  0  0  0  0  0  0  0  0  0
   -4.0020   -0.3990    1.2380 C   0  0  0  0  0  0  0  0  0  0  0  0
   -2.3970    0.9580    2.4700 C   0  0  0  0  0  3  0  0  0  0  0  0
   -4.5330   -0.8370    0.0650 N   0  0  0  0  0  0  0  0  0  0  0  0
   -4.5220   -0.8650    2.4560 C   0  0  0  0  0  3  0  0  0  0  0  0
   -4.0540   -0.3940   -1.1340 C   0  0  0  0  0  0  0  0  0  0  0  0
   -5.3210   -1.5260    0.0740 H   0  0  0  0  0  0  0  0  0  0  0  0
   -3.0050    0.5300   -1.1690 C   0  0  0  0  0  0  0  0  0  0  0  0
   -4.5430   -0.8070   -2.1740 O   0  0  0  0  0  0  0  0  0  0  0  0
   -2.5820    0.9130   -2.2490 O   0  0  0  0  0  0  0  0  0  0  0  0
   -3.9910   -0.4210    3.6650 C   0  0  0  0  0  3  0  0  0  0  0  0
   -2.9320    0.4850    3.6720 C   0  0  0  0  0  3  0  0  0  0  0  0
  1  3  1  0  0  0  0
  2  1  1  0  0  0  0
  4  2  1  0  0  0  0
  5  4  1  0  0  0  0
  6  7  1  0  0  0  0
  6  2  1  0  0  0  0
  7  8  1  0  0  0  0
  8  9  2  0  0  0  0
  8 10  1  0  0  0  0
  9 12  1  0  0  0  0
 10 19  2  0  0  0  0
 11 14  1  0  0  0  0
 11  9  1  0  0  0  0
 12 18  2  0  0  0  0
 13 11  1  0  0  0  0
 15 13  1  0  0  0  0
 15  7  1  0  0  0  0
 16 13  2  0  0  0  0
 17 15  2  0  0  0  0
 18 19  1  0  0  0  0
M  END
>  <REMARK>
  3 active torsions:
  status: ('A' for Active; 'I' for Inactive)
    1  A    between atoms: C_2  and  O_3 
    2  A    between atoms: C_2  and  C_4 
    3  A    between atoms: C_4  and  N_5 

>  <TORSDO>
F 3

$$$$
C:\Users\siddh\.mgltools\PyRx\Ligands\ZINC000032223535_uff_E=148.78.pdbqt
 OpenBabel04182118313D

 16 16  0  0  1  0  0  0  0  0999 V2000
   -1.2320   -2.1010   -0.0160 C   0  0  1  0  0  3  0  0  0  0  0  0
   -2.5120   -2.6330    0.1130 O   0  0  0  0  0  0  0  0  0  0  0  0
   -2.4120   -3.9010   -0.5080 C   0  0  0  0  0  0  0  0  0  0  0  0
   -2.1260   -4.9840    0.5440 C   0  0  0  0  0  1  0  0  0  0  0  0
   -3.7420   -4.1970   -1.2100 C   0  0  0  0  0  1  0  0  0  0  0  0
   -1.3550   -3.9030   -1.4540 O   0  0  0  0  0  0  0  0  0  0  0  0
   -0.7350   -2.6510   -1.3410 C   0  0  1  0  0  3  0  0  0  0  0  0
   -1.0710   -1.8120   -2.5560 C   0  0  0  0  0  3  0  0  0  0  0  0
   -1.8620   -2.3000   -3.5300 O   0  0  0  0  0  0  0  0  0  0  0  0
   -2.0640   -1.7740   -4.2780 H   0  0  0  0  0  0  0  0  0  0  0  0
   -0.5230   -0.5890   -2.7040 O   0  0  0  0  0  0  0  0  0  0  0  0
    0.0290   -0.2400   -2.0330 H   0  0  0  0  0  0  0  0  0  0  0  0
   -1.2270   -0.5980    0.1070 C   0  0  0  0  0  0  0  0  0  0  0  0
   -2.2790    0.0050    0.2600 O   0  0  0  0  0  0  0  0  0  0  0  0
   -0.0470    0.0720    0.0470 O   0  0  0  0  0  0  0  0  0  0  0  0
    0.0360    1.4490    0.0780 C   0  0  0  0  0  1  0  0  0  0  0  0
  1 13  1  6  0  0  0
  1  2  1  0  0  0  0
  3  2  1  0  0  0  0
  3  4  1  0  0  0  0
  5  3  1  0  0  0  0
  6  7  1  0  0  0  0
  6  3  1  0  0  0  0
  7  8  1  6  0  0  0
  7  1  1  0  0  0  0
  9  8  1  0  0  0  0
 10  9  1  0  0  0  0
 11  8  1  0  0  0  0
 11 12  1  0  0  0  0
 13 14  2  0  0  0  0
 15 16  1  0  0  0  0
 15 13  1  0  0  0  0
M  END
>  <REMARK>
  5 active torsions:
  status: ('A' for Active; 'I' for Inactive)
    1  A    between atoms: O_2  and  C_3 
    2  A    between atoms: C_3  and  C_5 
    3  A    between atoms: C_11  and  C_12 
    4  A    between atoms: C_12  and  O_13 
    5  A    between atoms: C_12  and  O_14 

>  <TORSDO>
F 5

$$$$
C:\Users\siddh\.mgltools\PyRx\Ligands\ZINC000032223533_uff_E=129.89.pdbqt
 OpenBabel04182118313D

 16 16  0  0  1  0  0  0  0  0999 V2000
   -1.2850   -2.1370    0.0380 C   0  0  2  0  0  3  0  0  0  0  0  0
   -2.5950   -2.6130   -0.0150 O   0  0  0  0  0  0  0  0  0  0  0  0
   -2.5270   -3.8910    0.5860 C   0  0  0  0  0  0  0  0  0  0  0  0
   -3.7760   -4.1010    1.4490 C   0  0  0  0  0  1  0  0  0  0  0  0
   -2.4610   -4.9650   -0.5060 C   0  0  0  0  0  1  0  0  0  0  0  0
   -1.3700   -3.9930    1.3960 O   0  0  0  0  0  0  0  0  0  0  0  0
   -0.7410   -2.7480    1.3090 C   0  0  1  0  0  3  0  0  0  0  0  0
    0.7570   -2.9110    1.2840 C   0  0  0  0  0  3  0  0  0  0  0  0
    1.3030   -4.1440    1.3190 O   0  0  0  0  0  0  0  0  0  0  0  0
    2.2340   -4.2440    1.3040 H   0  0  0  0  0  0  0  0  0  0  0  0
    1.5620   -1.8340    1.2350 O   0  0  0  0  0  0  0  0  0  0  0  0
    1.1920   -0.9730    1.2110 H   0  0  0  0  0  0  0  0  0  0  0  0
   -1.2610   -0.6270    0.0250 C   0  0  0  0  0  0  0  0  0  0  0  0
   -2.3150   -0.0080   -0.0110 O   0  0  0  0  0  0  0  0  0  0  0  0
   -0.0770    0.0400    0.0270 O   0  0  0  0  0  0  0  0  0  0  0  0
   -0.0020    1.4190    0.0160 C   0  0  0  0  0  1  0  0  0  0  0  0
  1 13  1  1  0  0  0
  1  7  1  0  0  0  0
  2  1  1  0  0  0  0
  2  3  1  0  0  0  0
  3  6  1  0  0  0  0
  3  4  1  0  0  0  0
  5  3  1  0  0  0  0
  7  8  1  6  0  0  0
  7  6  1  0  0  0  0
  8  9  1  0  0  0  0
 10  9  1  0  0  0  0
 11  8  1  0  0  0  0
 12 11  1  0  0  0  0
 13 15  1  0  0  0  0
 14 13  2  0  0  0  0
 16 15  1  0  0  0  0
M  END
>  <REMARK>
  5 active torsions:
  status: ('A' for Active; 'I' for Inactive)
    1  A    between atoms: O_2  and  C_3 
    2  A    between atoms: C_3  and  C_5 
    3  A    between atoms: C_11  and  C_12 
    4  A    between atoms: C_12  and  O_13 
    5  A    between atoms: C_12  and  O_14 

>  <TORSDO>
F 5

$$$$
C:\Users\siddh\.mgltools\PyRx\Ligands\ZINC000032194656_uff_E=388.44.pdbqt
 OpenBabel04182118313D

 17 17  0  0  0  0  0  0  0  0999 V2000
    2.2400    0.8910    0.2160 C   0  0  0  0  0  0  0  0  0  0  0  0
    2.6770    0.1960   -0.6980 O   0  0  0  0  0  0  0  0  0  0  0  0
    3.1110    1.7010    0.8900 N   0  0  0  0  0  0  0  0  0  0  0  0
    2.6760    2.6350    1.9310 C   0  0  0  0  0  2  0  0  0  0  0  0
    3.4840    2.4000    3.1900 C   0  0  0  0  0  2  0  0  0  0  0  0
    4.9120    2.5230    2.8620 N   0  0  0  0  0  0  0  0  0  0  0  0
    5.7120    2.4700    4.0840 C   0  0  0  0  0  1  0  0  0  0  0  0
    5.3040    1.4550    1.9240 C   0  0  0  0  0  2  0  0  0  0  0  0
    4.5420    1.6420    0.6070 C   0  0  0  0  0  2  0  0  0  0  0  0
    0.7960    0.7590    0.6020 C   0  0  0  0  0  3  0  0  0  0  0  0
   -0.0440   -0.1020    0.0200 C   0  0  0  0  0  0  0  0  0  0  0  0
   -1.3780   -0.3510    0.6410 C   0  0  0  0  0  1  0  0  0  0  0  0
    0.3200   -0.8310   -1.1930 C   0  0  0  0  0  3  0  0  0  0  0  0
    0.9510   -2.0150   -1.1120 O   0  0  0  0  0  0  0  0  0  0  0  0
    1.1820   -2.4780   -1.8930 H   0  0  0  0  0  0  0  0  0  0  0  0
    0.2060   -0.2050   -2.3780 O   0  0  0  0  0  0  0  0  0  0  0  0
   -0.2350    0.6210   -2.4320 H   0  0  0  0  0  0  0  0  0  0  0  0
  1 10  1  0  0  0  0
  1  3  1  0  0  0  0
  2  1  2  0  0  0  0
  3  4  1  0  0  0  0
  4  5  1  0  0  0  0
  6  5  1  0  0  0  0
  6  7  1  0  0  0  0
  8  6  1  0  0  0  0
  9  3  1  0  0  0  0
  9  8  1  0  0  0  0
 11 10  2  0  0  0  0
 11 12  1  0  0  0  0
 13 14  1  0  0  0  0
 13 11  1  0  0  0  0
 15 14  1  0  0  0  0
 16 13  1  0  0  0  0
 17 16  1  0  0  0  0
M  END
>  <REMARK>
  4 active torsions:
  status: ('A' for Active; 'I' for Inactive)
    1  A    between atoms: C_2  and  C_13 
    2  A    between atoms: C_3  and  C_4 
       I    between atoms: C_4  and  N_6 
    3  A    between atoms: C_13  and  O_14 
    4  A    between atoms: C_13  and  O_15 

>  <TORSDO>
F 4

$$$$
C:\Users\siddh\.mgltools\PyRx\Ligands\ZINC000031807922_uff_E=403.95.pdbqt
 OpenBabel04182118313D

 25 26  0  0  1  0  0  0  0  0999 V2000
   -1.2250    1.9520    0.0290 C   0  0  0  0  0  0  0  0  0  0  0  0
   -1.3470    3.2960    0.2170 N   0  0  0  0  0  0  0  0  0  0  0  0
   -0.5020    3.8510    0.3520 H   0  0  0  0  0  0  0  0  0  0  0  0
   -2.5460    3.9230    0.2300 C   0  0  0  0  0  3  0  0  0  0  0  0
   -3.7040    3.1830    0.0480 C   0  0  0  0  0  3  0  0  0  0  0  0
   -3.6200    1.8380   -0.1110 N   0  0  0  0  0  0  0  0  0  0  0  0
   -4.4800    1.3020   -0.2290 H   0  0  0  0  0  0  0  0  0  0  0  0
   -2.4260    1.1760   -0.1190 C   0  0  0  0  0  0  0  0  0  0  0  0
   -2.4650   -0.3230   -0.2080 C   0  0  0  0  0  0  0  0  0  0  0  0
   -1.4520   -0.9690   -0.0180 O   0  0  0  0  0  0  0  0  0  0  0  0
   -3.6430   -0.9790   -0.4420 N   0  0  0  0  0  0  0  0  0  0  0  0
   -3.7180   -2.4040   -0.5270 C   0  0  1  0  0  3  0  0  0  0  0  0
   -4.5140   -0.4430   -0.5680 H   0  0  0  0  0  0  0  0  0  0  0  0
   -4.8670   -3.0800   -0.7330 N   0  0  0  0  0  0  0  0  0  0  0  0
   -2.6610   -3.2320   -0.4290 N   0  0  0  0  0  0  0  0  0  0  0  0
   -4.4610   -4.3680   -0.7550 C   0  0  0  0  0  2  0  0  0  0  0  0
   -5.8100   -2.7090   -0.8450 H   0  0  0  0  0  0  0  0  0  0  0  0
   -3.1330   -4.4560   -0.5740 N   0  0  0  0  0  0  0  0  0  0  0  0
   -2.5520   -5.3230   -0.5490 H   0  0  0  0  0  0  0  0  0  0  0  0
   -1.6880   -2.9670   -0.2750 H   0  0  0  0  0  0  0  0  0  0  0  0
    0.1690    1.4290   -0.0380 C   0  0  0  0  0  3  0  0  0  0  0  0
    0.4810    0.2940   -0.6890 O   0  0  0  0  0  0  0  0  0  0  0  0
    0.8730    0.0570   -1.5060 H   0  0  0  0  0  0  0  0  0  0  0  0
    1.1740    2.1860    0.4410 O   0  0  0  0  0  0  0  0  0  0  0  0
    0.9830    2.9820    0.8980 H   0  0  0  0  0  0  0  0  0  0  0  0
  1  2  1  0  0  0  0
  2  4  1  0  0  0  0
  2  3  1  0  0  0  0
  5  4  2  0  0  0  0
  6  5  1  0  0  0  0
  7  6  1  0  0  0  0
  8  6  1  0  0  0  0
  8  1  2  0  0  0  0
  9  8  1  0  0  0  0
  9 10  2  0  0  0  0
 11  9  1  0  0  0  0
 12 11  1  6  0  0  0
 12 15  1  0  0  0  0
 13 11  1  0  0  0  0
 14 12  1  0  0  0  0
 15 20  1  0  0  0  0
 16 14  1  0  0  0  0
 16 18  1  0  0  0  0
 17 14  1  0  0  0  0
 18 19  1  0  0  0  0
 18 15  1  0  0  0  0
 21  1  1  0  0  0  0
 21 24  1  0  0  0  0
 22 21  1  0  0  0  0
 23 22  1  0  0  0  0
 24 25  1  0  0  0  0
M  END
>  <REMARK>
  4 active torsions:
  status: ('A' for Active; 'I' for Inactive)
    1  A    between atoms: O_1  and  C_2 
    2  A    between atoms: C_2  and  O_3 
    3  A    between atoms: C_2  and  C_4 
    4  A    between atoms: C_11  and  C_12 
       I    between atoms: C_12  and  N_14 
       I    between atoms: N_14  and  C_15 

>  <TORSDO>
F 4

$$$$
C:\Users\siddh\.mgltools\PyRx\Ligands\ZINC000030834184_uff_E=290.23.pdbqt
 OpenBabel04182118313D

 19 20  0  0  0  0  0  0  0  0999 V2000
   -1.2990    1.9390    0.0210 C   0  0  0  0  0  0  0  0  0  0  0  0
   -2.5060    1.2380   -0.0780 C   0  0  0  0  0  3  0  0  0  0  0  0
   -3.7220    1.9170   -0.0690 C   0  0  0  0  0  3  0  0  0  0  0  0
   -3.7500    3.3070    0.0370 C   0  0  0  0  0  3  0  0  0  0  0  0
   -2.5500    4.0390    0.1370 C   0  0  0  0  0  0  0  0  0  0  0  0
   -1.3070    3.3580    0.1310 C   0  0  0  0  0  0  0  0  0  0  0  0
   -0.1220    4.1300    0.2340 C   0  0  0  0  0  0  0  0  0  0  0  0
    0.9780    3.6040    0.2370 O   0  0  0  0  0  0  0  0  0  0  0  0
   -0.2030    5.4920    0.3340 N   0  0  0  0  0  0  0  0  0  0  0  0
   -1.3770    6.1260    0.3370 N   0  0  0  0  0  0  0  0  0  0  0  0
   -2.5600    5.4410    0.2430 C   0  0  0  0  0  0  0  0  0  0  0  0
   -3.6130    6.0580    0.2500 O   0  0  0  0  0  0  0  0  0  0  0  0
    0.6780    6.0500    0.4090 H   0  0  0  0  0  0  0  0  0  0  0  0
   -1.3890    7.1680    0.4140 H   0  0  0  0  0  0  0  0  0  0  0  0
   -0.0490    1.1670    0.0050 C   0  0  0  0  0  3  0  0  0  0  0  0
    0.5990    0.9670   -1.1580 O   0  0  0  0  0  0  0  0  0  0  0  0
    0.8850    1.6970   -1.6710 H   0  0  0  0  0  0  0  0  0  0  0  0
    0.5130    0.7770    1.1640 O   0  0  0  0  0  0  0  0  0  0  0  0
    0.0620    0.9160    1.9730 H   0  0  0  0  0  0  0  0  0  0  0  0
  1  6  1  0  0  0  0
  2  3  1  0  0  0  0
  2  1  2  0  0  0  0
  3  4  2  0  0  0  0
  4  5  1  0  0  0  0
  5 11  1  0  0  0  0
  6  5  2  0  0  0  0
  6  7  1  0  0  0  0
  7  8  2  0  0  0  0
  7  9  1  0  0  0  0
  9 10  1  0  0  0  0
  9 13  1  0  0  0  0
 10 14  1  0  0  0  0
 11 12  2  0  0  0  0
 11 10  1  0  0  0  0
 15  1  1  0  0  0  0
 15 18  1  0  0  0  0
 16 15  1  0  0  0  0
 17 16  1  0  0  0  0
 18 19  1  0  0  0  0
M  END
>  <REMARK>
  3 active torsions:
  status: ('A' for Active; 'I' for Inactive)
    1  A    between atoms: O_1  and  C_2 
    2  A    between atoms: C_2  and  O_3 
    3  A    between atoms: C_2  and  C_4 

>  <TORSDO>
F 3

$$$$
C:\Users\siddh\.mgltools\PyRx\Ligands\ZINC000030677738_uff_E=77.52.pdbqt
 OpenBabel04182118313D

 18 17  0  0  0  0  0  0  0  0999 V2000
   -2.5560   -2.6370    0.0170 C   0  0  0  0  0  3  0  0  0  0  0  0
   -1.2950   -1.9100   -0.0140 N   0  0  0  0  0  0  0  0  0  0  0  0
   -1.2360   -0.5570    0.1340 C   0  0  0  0  0  0  0  0  0  0  0  0
   -2.2570    0.0940    0.3180 O   0  0  0  0  0  0  0  0  0  0  0  0
   -0.4260   -2.4260   -0.2210 H   0  0  0  0  0  0  0  0  0  0  0  0
   -0.0380    0.0730    0.0370 O   0  0  0  0  0  0  0  0  0  0  0  0
    0.0820    1.4480    0.0330 C   0  0  0  0  0  1  0  0  0  0  0  0
   -2.8380   -3.1190   -1.3260 N   0  0  0  0  0  0  0  0  0  0  0  0
   -3.8420   -2.5980   -2.0840 C   0  0  0  0  0  0  0  0  0  0  0  0
   -4.5550   -1.7040   -1.6430 O   0  0  0  0  0  0  0  0  0  0  0  0
   -2.2200   -3.8350   -1.7390 H   0  0  0  0  0  0  0  0  0  0  0  0
   -4.0270   -3.0480   -3.3510 O   0  0  0  0  0  0  0  0  0  0  0  0
   -4.9360   -2.4750   -4.2170 C   0  0  0  0  0  1  0  0  0  0  0  0
   -2.5100   -3.7860    0.9890 C   0  0  0  0  0  3  0  0  0  0  0  0
   -1.4000   -4.0340    1.7130 O   0  0  0  0  0  0  0  0  0  0  0  0
   -1.3830   -4.7520    2.3150 H   0  0  0  0  0  0  0  0  0  0  0  0
   -3.5920   -4.5720    1.1470 O   0  0  0  0  0  0  0  0  0  0  0  0
   -4.3680   -4.4060    0.6470 H   0  0  0  0  0  0  0  0  0  0  0  0
  1 14  1  0  0  0  0
  2  1  1  0  0  0  0
  2  3  1  0  0  0  0
  3  4  2  0  0  0  0
  5  2  1  0  0  0  0
  6  3  1  0  0  0  0
  7  6  1  0  0  0  0
  8  1  1  0  0  0  0
  9 10  2  0  0  0  0
  9  8  1  0  0  0  0
 11  8  1  0  0  0  0
 12  9  1  0  0  0  0
 13 12  1  0  0  0  0
 14 17  1  0  0  0  0
 14 15  1  0  0  0  0
 15 16  1  0  0  0  0
 18 17  1  0  0  0  0
M  END
>  <REMARK>
  7 active torsions:
  status: ('A' for Active; 'I' for Inactive)
    1  A    between atoms: O_2  and  C_3 
       I    between atoms: C_3  and  N_5 
    2  A    between atoms: N_5  and  C_6 
    3  A    between atoms: C_6  and  N_7 
    4  A    between atoms: C_6  and  C_12 
       I    between atoms: N_7  and  C_8 
    5  A    between atoms: C_8  and  O_10 
    6  A    between atoms: C_12  and  O_13 
    7  A    between atoms: C_12  and  O_14 

>  <TORSDO>
F 7

$$$$
C:\Users\siddh\.mgltools\PyRx\Ligands\ZINC000026443386_uff_E=155.49.pdbqt
 OpenBabel04182118313D

 21 21  0  0  1  0  0  0  0  0999 V2000
    0.8500   -0.3070    1.4360 C   0  0  2  0  0  3  0  0  0  0  0  0
    1.2760    0.7450    2.1800 N   0  0  0  0  0  0  0  0  0  0  0  0
    1.0750    1.6930    1.8620 H   0  0  0  0  0  0  0  0  0  0  0  0
    1.9470    0.5720    3.3120 N   0  0  0  0  0  0  0  0  0  0  0  0
    2.2500    1.3890    3.8430 H   0  0  0  0  0  0  0  0  0  0  0  0
    2.2380   -0.6660    3.7760 C   0  0  2  0  0  3  0  0  0  0  0  0
    1.8160   -1.7750    3.0370 C   0  0  0  0  0  0  0  0  0  0  0  0
    2.0630   -2.9040    3.4320 O   0  0  0  0  0  0  0  0  0  0  0  0
    1.1200   -1.5900    1.8610 N   0  0  0  0  0  0  0  0  0  0  0  0
    3.0000   -0.8300    5.0630 C   0  0  0  0  0  2  0  0  0  0  0  0
    3.3440    0.5250    5.6980 C   0  0  0  0  0  2  0  0  0  0  0  0
    4.1020    0.3810    6.9830 C   0  0  0  0  0  3  0  0  0  0  0  0
    4.4160   -0.8350    7.4710 O   0  0  0  0  0  0  0  0  0  0  0  0
    4.8900   -0.9090    8.2750 H   0  0  0  0  0  0  0  0  0  0  0  0
    4.4740    1.4840    7.6570 O   0  0  0  0  0  0  0  0  0  0  0  0
    4.2590    2.3330    7.3230 H   0  0  0  0  0  0  0  0  0  0  0  0
    0.7020   -2.7290    1.1360 N   0  0  0  0  0  0  0  0  0  0  0  0
    0.1760   -2.4880    0.2720 H   0  0  0  0  0  0  0  0  0  0  0  0
    1.5530   -3.2640    0.8470 H   0  0  0  0  0  0  0  0  0  0  0  0
   -0.0610    0.0210   -0.0970 S   0  0  0  0  0  0  0  0  0  0  0  0
   -0.0340    1.8400   -0.0050 C   0  0  0  0  0  1  0  0  0  0  0  0
  1 20  1  6  0  0  0
  1  9  1  0  0  0  0
  1  2  1  0  0  0  0
  2  4  1  0  0  0  0
  3  2  1  0  0  0  0
  4  6  1  0  0  0  0
  4  5  1  0  0  0  0
  6 10  1  1  0  0  0
  7  8  2  0  0  0  0
  7  6  1  0  0  0  0
  9  7  1  0  0  0  0
 10 11  1  0  0  0  0
 11 12  1  0  0  0  0
 12 13  1  0  0  0  0
 12 15  1  0  0  0  0
 13 14  1  0  0  0  0
 16 15  1  0  0  0  0
 17  9  1  0  0  0  0
 18 17  1  0  0  0  0
 19 17  1  0  0  0  0
 20 21  1  0  0  0  0
M  END
>  <REMARK>
  7 active torsions:
  status: ('A' for Active; 'I' for Inactive)
    1  A    between atoms: S_2  and  C_3 
    2  A    between atoms: C_8  and  C_9 
    3  A    between atoms: C_9  and  C_10 
    4  A    between atoms: C_10  and  C_11 
    5  A    between atoms: C_11  and  O_12 
    6  A    between atoms: C_11  and  O_13 
    7  A    between atoms: N_16  and  N_17 

>  <TORSDO>
F 7

$$$$
C:\Users\siddh\.mgltools\PyRx\Ligands\ZINC000026420176_uff_E=137.60.pdbqt
 OpenBabel04182118313D

 19 20  0  0  1  0  0  0  0  0999 V2000
    0.0300   -0.1190    0.0020 O   0  0  0  0  0  0  0  0  0  0  0  0
   -0.0090    1.2290    0.0110 C   0  0  0  0  0  3  0  0  0  0  0  0
    0.1040   -1.0530   -0.0170 H   0  0  0  0  0  0  0  0  0  0  0  0
    1.1400    1.9280    0.0060 O   0  0  0  0  0  0  0  0  0  0  0  0
    1.1190    2.8640    0.0130 H   0  0  0  0  0  0  0  0  0  0  0  0
   -1.3220    1.9560    0.0250 C   0  0  0  0  0  2  0  0  0  0  0  0
   -2.4370    1.0000    0.0060 N   0  0  0  0  0  0  0  0  0  0  0  0
   -2.9770    0.5090    1.1830 C   0  0  0  0  0  0  0  0  0  0  0  0
   -4.0280   -0.4190    1.1260 C   0  0  0  0  0  0  0  0  0  0  0  0
   -2.5400    0.8770    2.2630 O   0  0  0  0  0  0  0  0  0  0  0  0
   -4.4950   -0.8250   -0.1370 C   0  0  1  0  0  3  0  0  0  0  0  0
   -4.6280   -0.9570    2.2770 C   0  0  0  0  0  3  0  0  0  0  0  0
   -3.9320   -0.3240   -1.2610 N   0  0  0  0  0  0  0  0  0  0  0  0
   -5.5100   -1.7220   -0.2350 N   0  0  0  0  0  0  0  0  0  0  0  0
   -2.9180    0.5740   -1.1990 C   0  0  0  0  0  2  0  0  0  0  0  0
   -4.2770   -0.6270   -2.1720 H   0  0  0  0  0  0  0  0  0  0  0  0
   -6.1020   -2.2490    0.8680 C   0  0  0  0  0  3  0  0  0  0  0  0
   -5.8360   -2.0060   -1.1590 H   0  0  0  0  0  0  0  0  0  0  0  0
   -5.6710   -1.8750    2.1430 C   0  0  0  0  0  3  0  0  0  0  0  0
  1  2  1  0  0  0  0
  2  6  1  0  0  0  0
  3  1  1  0  0  0  0
  4  2  1  0  0  0  0
  4  5  1  0  0  0  0
  7  6  1  0  0  0  0
  7  8  1  0  0  0  0
  8 10  2  0  0  0  0
  9  8  1  0  0  0  0
  9 12  2  0  0  0  0
 11  9  1  6  0  0  0
 13 15  1  0  0  0  0
 13 11  1  0  0  0  0
 14 11  1  0  0  0  0
 14 17  1  0  0  0  0
 15  7  1  0  0  0  0
 16 13  1  0  0  0  0
 17 19  2  0  0  0  0
 18 14  1  0  0  0  0
 19 12  1  0  0  0  0
M  END
>  <REMARK>
  3 active torsions:
  status: ('A' for Active; 'I' for Inactive)
    1  A    between atoms: C_2  and  O_3 
    2  A    between atoms: C_2  and  C_4 
    3  A    between atoms: C_4  and  N_5 

>  <TORSDO>
F 3

$$$$
C:\Users\siddh\.mgltools\PyRx\Ligands\ZINC000025578658_uff_E=129.07.pdbqt
 OpenBabel04182118313D

 23 23  0  0  1  0  0  0  0  0999 V2000
   -0.0420    1.5000   -0.0150 C   0  0  0  0  0  1  0  0  0  0  0  0
    0.0060    0.0290   -0.0120 N   0  0  0  0  0  0  0  0  0  0  0  0
   -1.1630   -0.7090    0.0900 C   0  0  0  0  0  0  0  0  0  0  0  0
   -2.2420   -0.1430    0.1900 O   0  0  0  0  0  0  0  0  0  0  0  0
   -1.1160   -2.1100    0.0740 C   0  0  0  0  0  0  0  0  0  0  0  0
    0.1290   -2.7360   -0.0370 C   0  0  0  0  0  0  0  0  0  0  0  0
    1.2510   -1.9840   -0.1290 N   0  0  0  0  0  0  0  0  0  0  0  0
    2.1540   -2.4520   -0.2080 H   0  0  0  0  0  0  0  0  0  0  0  0
    1.2120   -0.6290   -0.1180 C   0  0  1  0  0  3  0  0  0  0  0  0
    2.4360    0.0840   -0.2220 N   0  0  0  0  0  0  0  0  0  0  0  0
    3.3180   -0.4380   -0.3280 H   0  0  0  0  0  0  0  0  0  0  0  0
    2.4770    1.1100   -0.1920 H   0  0  0  0  0  0  0  0  0  0  0  0
   -2.3770   -2.9240    0.1990 C   0  0  0  0  0  2  0  0  0  0  0  0
   -2.7580   -3.0580    1.6730 C   0  0  0  0  0  2  0  0  0  0  0  0
   -4.0330   -3.8830    1.8050 C   0  0  0  0  0  2  0  0  0  0  0  0
   -4.4280   -4.0580    3.2720 C   0  0  0  0  0  2  0  0  0  0  0  0
   -5.6870   -4.8660    3.4150 C   0  0  0  0  0  3  0  0  0  0  0  0
   -6.3330   -5.3440    2.3310 O   0  0  0  0  0  0  0  0  0  0  0  0
   -7.1170   -5.8460    2.4360 H   0  0  0  0  0  0  0  0  0  0  0  0
   -6.1790   -5.1160    4.6410 O   0  0  0  0  0  0  0  0  0  0  0  0
   -5.7370   -4.7880    5.3990 H   0  0  0  0  0  0  0  0  0  0  0  0
    0.2250   -4.0800   -0.0310 O   0  0  0  0  0  0  0  0  0  0  0  0
    1.0840   -4.5200   -0.0850 H   0  0  0  0  0  0  0  0  0  0  0  0
  1  2  1  0  0  0  0
  2  3  1  0  0  0  0
  3  4  2  0  0  0  0
  5  3  1  0  0  0  0
  5 13  1  0  0  0  0
  6 22  1  0  0  0  0
  6  5  2  0  0  0  0
  7  9  1  0  0  0  0
  7  6  1  0  0  0  0
  8  7  1  0  0  0  0
  9 10  1  6  0  0  0
  9  2  1  0  0  0  0
 10 12  1  0  0  0  0
 11 10  1  0  0  0  0
 13 14  1  0  0  0  0
 14 15  1  0  0  0  0
 15 16  1  0  0  0  0
 16 17  1  0  0  0  0
 17 20  1  0  0  0  0
 18 19  1  0  0  0  0
 18 17  1  0  0  0  0
 20 21  1  0  0  0  0
 23 22  1  0  0  0  0
M  END
>  <REMARK>
  8 active torsions:
  status: ('A' for Active; 'I' for Inactive)
    1  A    between atoms: C_5  and  C_6 
    2  A    between atoms: C_6  and  C_7 
    3  A    between atoms: C_7  and  C_8 
    4  A    between atoms: C_8  and  C_9 
    5  A    between atoms: C_9  and  C_10 
    6  A    between atoms: C_10  and  O_11 
    7  A    between atoms: C_10  and  O_12 
    8  A    between atoms: C_13  and  O_14 
       I    between atoms: C_17  and  N_18 

>  <TORSDO>
F 8

$$$$
C:\Users\siddh\.mgltools\PyRx\Ligands\ZINC000022205753_uff_E=319.53.pdbqt
 OpenBabel04182118313D

 18 17  0  0  1  0  0  0  0  0999 V2000
    2.3640   -4.1750    3.7890 N   0  0  0  0  0  0  0  0  0  0  0  0
    1.6360   -3.7950    2.5790 C   0  0  0  0  0  2  0  0  0  0  0  0
    1.4740   -2.2670    2.4990 C   0  0  1  0  0  3  0  0  0  0  0  0
    0.7570   -1.8410    1.2130 C   0  0  0  0  0  2  0  0  0  0  0  0
    0.6920   -0.4320    1.1820 O   0  0  0  0  0  0  0  0  0  0  0  0
    0.0100   -0.0130    0.0230 C   0  0  0  0  0  2  0  0  0  0  0  0
   -0.0230    1.5060    0.0040 C   0  0  0  0  0  1  0  0  0  0  0  0
    0.7850   -1.7710    3.6210 O   0  0  0  0  0  0  0  0  0  0  0  0
   -0.1150   -2.1930    3.6310 H   0  0  0  0  0  0  0  0  0  0  0  0
    1.6630   -4.4340    5.0520 C   0  0  0  0  0  2  0  0  0  0  0  0
    1.1590   -5.8680    5.0990 C   0  0  0  0  0  1  0  0  0  0  0  0
    4.1350   -4.3720    3.7330 S   0  0  0  0  0  0  0  0  0  0  0  0
    4.6330   -5.5440    4.8960 O   0  0  0  0  0  0  0  0  0  0  0  0
    4.2050   -6.3930    4.7040 H   0  0  0  0  0  0  0  0  0  0  0  0
    4.6230   -4.9150    2.1690 O   0  0  0  0  0  0  0  0  0  0  0  0
    4.1950   -5.7630    1.9730 H   0  0  0  0  0  0  0  0  0  0  0  0
    4.8990   -2.8650    4.0780 O   0  0  0  0  0  0  0  0  0  0  0  0
    4.6260   -2.5580    4.9570 H   0  0  0  0  0  0  0  0  0  0  0  0
  1 10  1  0  0  0  0
  2  1  1  0  0  0  0
  3  4  1  6  0  0  0
  3  2  1  0  0  0  0
  3  8  1  0  0  0  0
  5  4  1  0  0  0  0
  6  5  1  0  0  0  0
  7  6  1  0  0  0  0
  8  9  1  0  0  0  0
 10 11  1  0  0  0  0
 12  1  1  0  0  0  0
 12 17  1  0  0  0  0
 12 13  1  0  0  0  0
 14 13  1  0  0  0  0
 15 12  1  0  0  0  0
 16 15  1  0  0  0  0
 17 18  1  0  0  0  0
M  END
>  <REMARK>
  11 active torsions:
  status: ('A' for Active; 'I' for Inactive)
    1  A    between atoms: C_2  and  O_3 
    2  A    between atoms: O_3  and  C_4 
    3  A    between atoms: C_4  and  C_5 
    4  A    between atoms: C_5  and  O_6 
    5  A    between atoms: C_5  and  C_7 
    6  A    between atoms: C_7  and  N_8 
    7  A    between atoms: N_8  and  C_9 
    8  A    between atoms: N_8  and  S_11 
    9  A    between atoms: S_11  and  O_12 
   10  A    between atoms: S_11  and  O_13 
   11  A    between atoms: S_11  and  O_14 

>  <TORSDO>
F 11

$$$$
C:\Users\siddh\.mgltools\PyRx\Ligands\ZINC000022205650_uff_E=328.95.pdbqt
 OpenBabel04182118313D

 24 25  0  0  1  0  0  0  0  0999 V2000
    0.0970   -0.1200    0.0010 O   0  0  0  0  0  0  0  0  0  0  0  0
    0.0280    1.2270    0.0070 C   0  0  0  0  0  3  0  0  0  0  0  0
    0.2280   -1.0480   -0.0120 H   0  0  0  0  0  0  0  0  0  0  0  0
    1.1640    1.9480    0.0040 O   0  0  0  0  0  0  0  0  0  0  0  0
    1.1240    2.8840    0.0090 H   0  0  0  0  0  0  0  0  0  0  0  0
   -1.2980    1.9330    0.0180 C   0  0  0  0  0  2  0  0  0  0  0  0
   -2.4660    0.9470    0.0190 C   0  0  0  0  0  2  0  0  0  0  0  0
   -3.8010    1.6800    0.0290 C   0  0  0  0  0  2  0  0  0  0  0  0
   -4.8930    0.7310    0.0290 N   0  0  0  0  0  0  0  0  0  0  0  0
   -6.2350    1.1790    0.0370 C   0  0  1  0  0  3  0  0  0  0  0  0
   -7.2650    0.2630    0.0410 N   0  0  0  0  0  0  0  0  0  0  0  0
   -6.5060    2.5230    0.0410 N   0  0  0  0  0  0  0  0  0  0  0  0
   -8.5790    0.6830    0.0500 C   0  0  0  0  0  0  0  0  0  0  0  0
   -7.0480   -0.7600    0.0380 H   0  0  0  0  0  0  0  0  0  0  0  0
   -8.8240    2.0450    0.0540 C   0  0  0  0  0  0  0  0  0  0  0  0
   -9.4930   -0.1230    0.0550 O   0  0  0  0  0  0  0  0  0  0  0  0
   -7.7970    2.9160    0.0500 C   0  0  0  0  0  0  0  0  0  0  0  0
   -9.9890    2.7170    0.0630 N   0  0  0  0  0  0  0  0  0  0  0  0
   -8.2620    4.1670    0.0540 N   0  0  0  0  0  0  0  0  0  0  0  0
   -9.6100    4.0250    0.0620 C   0  0  0  0  0  2  0  0  0  0  0  0
   -7.7100    5.0540    0.0520 H   0  0  0  0  0  0  0  0  0  0  0  0
  -10.9350    2.3360    0.0680 H   0  0  0  0  0  0  0  0  0  0  0  0
   -5.7500    3.2080    0.0380 H   0  0  0  0  0  0  0  0  0  0  0  0
   -4.7000   -0.2820    0.0240 H   0  0  0  0  0  0  0  0  0  0  0  0
  1  2  1  0  0  0  0
  2  6  1  0  0  0  0
  3  1  1  0  0  0  0
  4  2  1  0  0  0  0
  4  5  1  0  0  0  0
  6  7  1  0  0  0  0
  7  8  1  0  0  0  0
  8  9  1  0  0  0  0
 10  9  1  1  0  0  0
 10 11  1  0  0  0  0
 10 12  1  0  0  0  0
 11 13  1  0  0  0  0
 12 17  1  0  0  0  0
 13 15  1  0  0  0  0
 13 16  2  0  0  0  0
 14 11  1  0  0  0  0
 15 18  1  0  0  0  0
 17 15  2  0  0  0  0
 17 19  1  0  0  0  0
 18 22  1  0  0  0  0
 19 20  1  0  0  0  0
 20 18  1  0  0  0  0
 21 19  1  0  0  0  0
 23 12  1  0  0  0  0
 24  9  1  0  0  0  0
M  END
>  <REMARK>
  5 active torsions:
  status: ('A' for Active; 'I' for Inactive)
    1  A    between atoms: C_2  and  O_3 
    2  A    between atoms: C_2  and  C_4 
    3  A    between atoms: C_4  and  C_5 
    4  A    between atoms: C_5  and  C_6 
    5  A    between atoms: C_6  and  N_7 
       I    between atoms: N_7  and  C_8 

>  <TORSDO>
F 5

$$$$
C:\Users\siddh\.mgltools\PyRx\Ligands\ZINC000022165608_uff_E=320.77.pdbqt
 OpenBabel04182118313D

 20 21  0  0  1  0  0  0  0  0999 V2000
   -1.4090    2.0000   -0.3140 C   0  0  2  0  0  3  0  0  0  0  0  0
   -1.2410    2.9450    0.8880 C   0  0  0  0  0  2  0  0  0  0  0  0
   -2.5920    2.7930    1.5670 C   0  0  1  0  0  3  0  0  0  0  0  0
   -2.7490    1.2730    1.5480 C   0  0  0  0  0  2  0  0  0  0  0  0
   -2.1620    0.9000    0.2780 N   0  0  2  0  0  0  0  0  0  0  0  0
   -1.8640   -0.4600    0.0010 C   0  0  1  0  0  3  0  0  0  0  0  0
   -1.9360   -0.9360   -1.2740 N   0  0  0  0  0  0  0  0  0  0  0  0
   -2.2430   -0.3170   -2.0250 H   0  0  0  0  0  0  0  0  0  0  0  0
   -1.6060   -2.2210   -1.5590 C   0  0  0  0  0  2  0  0  0  0  0  0
   -1.1440   -3.0610   -0.5470 C   0  0  0  0  0  3  0  0  0  0  0  0
   -1.0640   -2.5580    0.7500 C   0  0  0  0  0  3  0  0  0  0  0  0
   -1.4420   -1.2820    1.0030 N   0  0  0  0  0  0  0  0  0  0  0  0
   -1.4090   -0.9300    1.9600 H   0  0  0  0  0  0  0  0  0  0  0  0
   -0.0720    1.6160   -0.9270 C   0  0  0  0  0  3  0  0  0  0  0  0
   -0.0280    0.8440   -2.0290 O   0  0  0  0  0  0  0  0  0  0  0  0
    0.0070    1.1620   -2.9100 H   0  0  0  0  0  0  0  0  0  0  0  0
    1.0840    2.0660   -0.3980 O   0  0  0  0  0  0  0  0  0  0  0  0
    1.0700    2.6040    0.3690 H   0  0  0  0  0  0  0  0  0  0  0  0
   -2.6080    3.3310    2.8610 O   0  0  0  0  0  0  0  0  0  0  0  0
   -3.4940    3.1040    3.2460 H   0  0  0  0  0  0  0  0  0  0  0  0
  1 14  1  1  0  0  0
  1  5  1  0  0  0  0
  1  2  1  0  0  0  0
  2  3  1  0  0  0  0
  3 19  1  1  0  0  0
  4  3  1  0  0  0  0
  5  4  1  1  0  0  0
  6  7  1  6  0  0  0
  6  5  1  0  0  0  0
  6 12  1  0  0  0  0
  8  7  1  0  0  0  0
  9  7  1  0  0  0  0
  9 10  1  0  0  0  0
 10 11  2  0  0  0  0
 11 12  1  0  0  0  0
 12 13  1  0  0  0  0
 14 17  1  0  0  0  0
 15 14  1  0  0  0  0
 16 15  1  0  0  0  0
 17 18  1  0  0  0  0
 19 20  1  0  0  0  0
M  END
>  <REMARK>
  4 active torsions:
  status: ('A' for Active; 'I' for Inactive)
    1  A    between atoms: O_1  and  C_2 
    2  A    between atoms: C_2  and  O_3 
    3  A    between atoms: C_2  and  C_4 
    4  A    between atoms: C_6  and  O_7 
       I    between atoms: N_9  and  C_10 

>  <TORSDO>
F 4

$$$$
C:\Users\siddh\.mgltools\PyRx\Ligands\ZINC000022165605_uff_E=224.87.pdbqt
 OpenBabel04182118313D

 20 21  0  0  1  0  0  0  0  0999 V2000
    0.1770   -0.0180   -0.0010 O   0  0  0  0  0  0  0  0  0  0  0  0
    0.0380    1.3220   -0.0500 C   0  0  0  0  0  3  0  0  0  0  0  0
    0.4350   -0.9140    0.0920 H   0  0  0  0  0  0  0  0  0  0  0  0
    1.1340    2.0970   -0.1440 O   0  0  0  0  0  0  0  0  0  0  0  0
    1.0470    3.0290   -0.1790 H   0  0  0  0  0  0  0  0  0  0  0  0
   -1.3290    1.9600    0.0380 C   0  0  1  0  0  3  0  0  0  0  0  0
   -2.4050    0.9970    0.1600 N   0  0  1  0  0  0  0  0  0  0  0  0
   -3.2410    1.2260    1.3130 C   0  0  0  0  0  2  0  0  0  0  0  0
   -2.7130    0.0310   -0.8450 C   0  0  1  0  0  3  0  0  0  0  0  0
   -2.9400    2.6900    1.6540 C   0  0  1  0  0  3  0  0  0  0  0  0
   -1.4500    2.7710    1.3370 C   0  0  0  0  0  2  0  0  0  0  0  0
   -3.7760   -0.8070   -0.6890 N   0  0  0  0  0  0  0  0  0  0  0  0
   -1.9460   -0.0570   -1.9680 N   0  0  0  0  0  0  0  0  0  0  0  0
   -4.0800   -1.7340   -1.6340 C   0  0  0  0  0  2  0  0  0  0  0  0
   -4.3520   -0.7370    0.1500 H   0  0  0  0  0  0  0  0  0  0  0  0
   -3.2980   -1.8380   -2.7830 C   0  0  0  0  0  3  0  0  0  0  0  0
   -2.2170   -0.9730   -2.9330 C   0  0  0  0  0  3  0  0  0  0  0  0
   -1.1540    0.5760   -2.0860 H   0  0  0  0  0  0  0  0  0  0  0  0
   -3.6370    3.5360    0.7750 O   0  0  0  0  0  0  0  0  0  0  0  0
   -4.5790    3.5500    1.0900 H   0  0  0  0  0  0  0  0  0  0  0  0
  1  3  1  0  0  0  0
  2  1  1  0  0  0  0
  4  2  1  0  0  0  0
  5  4  1  0  0  0  0
  6  2  1  1  0  0  0
  6  7  1  0  0  0  0
  6 11  1  0  0  0  0
  7  8  1  6  0  0  0
  8 10  1  0  0  0  0
  9 13  1  6  0  0  0
  9 12  1  0  0  0  0
  9  7  1  0  0  0  0
 10 19  1  6  0  0  0
 11 10  1  0  0  0  0
 12 15  1  0  0  0  0
 14 12  1  0  0  0  0
 16 14  1  0  0  0  0
 17 16  2  0  0  0  0
 17 13  1  0  0  0  0
 18 13  1  0  0  0  0
 19 20  1  0  0  0  0
M  END
>  <REMARK>
  3 active torsions:
  status: ('A' for Active; 'I' for Inactive)
    1  A    between atoms: C_2  and  O_3 
    2  A    between atoms: C_2  and  C_4 
    3  A    between atoms: C_6  and  O_7 
       I    between atoms: N_9  and  C_10 

>  <TORSDO>
F 3

$$$$
C:\Users\siddh\.mgltools\PyRx\Ligands\ZINC000022159523_uff_E=678.32.pdbqt
 OpenBabel04182118313D

 17 17  0  0  0  0  0  0  0  0999 V2000
    1.7230   -1.0550   -1.8810 C   0  0  0  0  0  0  0  0  0  0  0  0
    2.4940   -0.2110   -2.6540 C   0  0  0  0  0  3  0  0  0  0  0  0
    3.7240   -0.7380   -2.8090 N   0  0  0  0  0  0  0  0  0  0  0  0
    3.7400   -1.9120   -2.1420 C   0  0  0  0  0  0  0  0  0  0  0  0
    2.5100   -2.1410   -1.5550 C   0  0  0  0  0  3  0  0  0  0  0  0
    4.5110   -0.3160   -3.3480 H   0  0  0  0  0  0  0  0  0  0  0  0
    0.0070   -0.8080   -1.4200 S   0  0  0  0  0  0  0  0  0  0  0  0
   -0.7410   -2.1490   -1.3560 O   0  0  0  0  0  0  0  0  0  0  0  0
   -0.7850   -0.1090   -2.5350 O   0  0  0  0  0  0  0  0  0  0  0  0
   -0.4590    0.0340    0.0800 N   0  0  0  0  0  0  0  0  0  0  0  0
   -0.0540    1.4430    0.0610 C   0  0  0  0  0  1  0  0  0  0  0  0
   -0.0140   -0.6860    1.2850 C   0  0  0  0  0  1  0  0  0  0  0  0
    4.9090   -2.8040   -2.0690 C   0  0  0  0  0  3  0  0  0  0  0  0
    6.0590   -2.4660   -2.6830 O   0  0  0  0  0  0  0  0  0  0  0  0
    6.8010   -3.0370   -2.6340 H   0  0  0  0  0  0  0  0  0  0  0  0
    4.8360   -3.9610   -1.3830 O   0  0  0  0  0  0  0  0  0  0  0  0
    4.0380   -4.2010   -0.9530 H   0  0  0  0  0  0  0  0  0  0  0  0
  1  5  1  0  0  0  0
  1  7  1  0  0  0  0
  2  1  2  0  0  0  0
  3  2  1  0  0  0  0
  3  4  1  0  0  0  0
  4 13  1  0  0  0  0
  4  5  2  0  0  0  0
  6  3  1  0  0  0  0
  7  8  2  0  0  0  0
  7 10  1  0  0  0  0
  9  7  2  0  0  0  0
 10 12  1  0  0  0  0
 11 10  1  0  0  0  0
 13 16  1  0  0  0  0
 14 15  1  0  0  0  0
 14 13  1  0  0  0  0
 16 17  1  0  0  0  0
M  END
>  <REMARK>
  5 active torsions:
  status: ('A' for Active; 'I' for Inactive)
    1  A    between atoms: N_2  and  S_4 
    2  A    between atoms: S_4  and  C_7 
    3  A    between atoms: C_10  and  C_11 
    4  A    between atoms: C_11  and  O_12 
    5  A    between atoms: C_11  and  O_13 

>  <TORSDO>
F 5

$$$$
C:\Users\siddh\.mgltools\PyRx\Ligands\ZINC000021991811_uff_E=286.57.pdbqt
 OpenBabel04182118313D

 17 17  0  0  1  0  0  0  0  0999 V2000
    2.3390    1.1490   -0.0130 C   0  0  2  0  0  3  0  0  0  0  0  0
    3.5230    1.8040   -0.0170 N   0  0  0  0  0  0  0  0  0  0  0  0
    3.6080    2.8210   -0.0090 H   0  0  0  0  0  0  0  0  0  0  0  0
    4.6020    0.9450   -0.0320 C   0  0  0  0  0  0  0  0  0  0  0  0
    4.2700   -0.4250   -0.0410 C   0  0  0  0  0  3  0  0  0  0  0  0
    2.6180   -0.4860   -0.0290 S   0  0  0  0  0  0  0  0  0  0  0  0
    5.9960    1.4400   -0.0380 C   0  0  0  0  0  0  0  0  0  0  0  0
    6.9180    0.6390   -0.0520 O   0  0  0  0  0  0  0  0  0  0  0  0
    6.3000    2.8900   -0.0260 C   0  0  0  0  0  3  0  0  0  0  0  0
    7.5810    3.3050   -0.0300 O   0  0  0  0  0  0  0  0  0  0  0  0
    7.7760    4.2210   -0.0230 H   0  0  0  0  0  0  0  0  0  0  0  0
    5.3120    3.8060   -0.0100 O   0  0  0  0  0  0  0  0  0  0  0  0
    4.4170    3.5290   -0.0070 H   0  0  0  0  0  0  0  0  0  0  0  0
    1.0860    1.8250    0.0010 N   0  0  0  0  0  0  0  0  0  0  0  0
    1.0980    2.8570    0.0080 H   0  0  0  0  0  0  0  0  0  0  0  0
   -0.1210    1.2010    0.0080 C   0  0  0  0  0  3  0  0  0  0  0  0
   -0.2100   -0.0170    0.0020 O   0  0  0  0  0  0  0  0  0  0  0  0
  1 14  1  6  0  0  0
  2  1  1  0  0  0  0
  2  3  1  0  0  0  0
  4  2  1  0  0  0  0
  5  4  2  0  0  0  0
  5  6  1  0  0  0  0
  6  1  1  0  0  0  0
  7  4  1  0  0  0  0
  7  9  1  0  0  0  0
  8  7  2  0  0  0  0
  9 12  1  0  0  0  0
 10  9  1  0  0  0  0
 10 11  1  0  0  0  0
 12 13  1  0  0  0  0
 14 15  1  0  0  0  0
 14 16  1  0  0  0  0
 17 16  2  0  0  0  0
M  END
>  <REMARK>
  6 active torsions:
  status: ('A' for Active; 'I' for Inactive)
    1  A    between atoms: C_2  and  N_3 
    2  A    between atoms: N_3  and  C_4 
    3  A    between atoms: C_7  and  C_8 
    4  A    between atoms: C_8  and  C_10 
    5  A    between atoms: C_10  and  O_11 
    6  A    between atoms: C_10  and  O_12 

>  <TORSDO>
F 6

$$$$
C:\Users\siddh\.mgltools\PyRx\Ligands\ZINC000021983279_uff_E=1420.51.pdbqt
 OpenBabel04182118313D

 17 18  0  0  1  0  0  0  0  0999 V2000
    0.0350    1.2840    0.3570 C   0  0  0  0  0  1  0  0  0  0  0  0
    0.0430   -0.2070   -0.0260 C   0  0  0  0  0  0  0  0  0  0  0  0
   -1.3820   -0.7680    0.1300 C   0  0  0  0  0  1  0  0  0  0  0  0
    0.6640   -0.4120   -1.4820 C   0  0  1  0  0  3  0  0  0  0  0  0
    2.1470   -0.7250   -1.1830 C   0  0  2  0  0  3  0  0  0  0  0  0
    3.3640   -1.3000   -1.7550 C   0  0  0  0  0  0  0  0  0  0  0  0
    3.4800   -1.6870   -2.9000 O   0  0  0  0  0  0  0  0  0  0  0  0
    3.7140   -2.0950   -0.5370 C   0  0  0  0  0  2  0  0  0  0  0  0
    2.2230   -1.8860   -0.1650 C   0  0  1  0  0  3  0  0  0  0  0  0
    1.2210   -1.1040    1.0790 S   0  0  0  0  0  0  0  0  0  0  0  0
    2.0750   -0.1890    1.9720 O   0  0  0  0  0  0  0  0  0  0  0  0
    0.5860   -2.1270    2.0330 O   0  0  0  0  0  0  0  0  0  0  0  0
   -0.0030   -1.4540   -2.3660 C   0  0  0  0  0  3  0  0  0  0  0  0
   -0.5200   -1.0710   -3.5510 O   0  0  0  0  0  0  0  0  0  0  0  0
   -0.9350   -1.7010   -4.1070 H   0  0  0  0  0  0  0  0  0  0  0  0
   -0.1060   -2.7440   -1.9990 O   0  0  0  0  0  0  0  0  0  0  0  0
    0.2480   -3.0270   -1.1790 H   0  0  0  0  0  0  0  0  0  0  0  0
  2  3  1  0  0  0  0
  2  1  1  0  0  0  0
  2 10  1  0  0  0  0
  4 13  1  1  0  0  0
  4  5  1  0  0  0  0
  4  2  1  0  0  0  0
  5  6  1  6  0  0  0
  5  9  1  0  0  0  0
  6  8  1  0  0  0  0
  7  6  2  0  0  0  0
  9  8  1  1  0  0  0
  9 10  1  0  0  0  0
 10 11  2  0  0  0  0
 10 12  2  0  0  0  0
 13 16  1  0  0  0  0
 14 13  1  0  0  0  0
 15 14  1  0  0  0  0
 16 17  1  0  0  0  0
M  END
>  <REMARK>
  3 active torsions:
  status: ('A' for Active; 'I' for Inactive)
    1  A    between atoms: C_4  and  C_5 
    2  A    between atoms: C_5  and  O_6 
    3  A    between atoms: C_5  and  O_7 

>  <TORSDO>
F 3

$$$$
C:\Users\siddh\.mgltools\PyRx\Ligands\ZINC000021983276_uff_E=1163.24.pdbqt
 OpenBabel04182118313D

 17 18  0  0  1  0  0  0  0  0999 V2000
   -0.2880    1.5050    0.0260 C   0  0  0  0  0  1  0  0  0  0  0  0
   -0.0930   -0.0200    0.0380 C   0  0  0  0  0  0  0  0  0  0  0  0
   -1.4570   -0.7230    0.1760 C   0  0  0  0  0  1  0  0  0  0  0  0
    0.7450   -0.5040   -1.1830 C   0  0  1  0  0  3  0  0  0  0  0  0
    1.4030   -1.8830   -0.8330 C   0  0  1  0  0  3  0  0  0  0  0  0
    2.8210   -1.8830   -1.2430 C   0  0  2  0  0  3  0  0  0  0  0  0
    3.2980   -2.7040   -2.0060 O   0  0  0  0  0  1  0  0  0  0  0  0
    3.3860   -1.5830    0.0940 C   0  0  0  0  0  2  0  0  0  0  0  0
    1.9540   -1.8570    0.6200 C   0  0  1  0  0  3  0  0  0  0  0  0
    0.9960   -0.5410    1.3840 S   0  0  0  0  0  0  0  0  0  0  0  0
    1.8870    0.5710    1.9580 O   0  0  0  0  0  0  0  0  0  0  0  0
    0.2250   -1.0780    2.6000 O   0  0  0  0  0  0  0  0  0  0  0  0
    0.0250   -0.5410   -2.5080 C   0  0  0  0  0  3  0  0  0  0  0  0
    0.4170    0.2660   -3.5110 O   0  0  0  0  0  0  0  0  0  0  0  0
   -0.0300    0.2420   -4.3340 H   0  0  0  0  0  0  0  0  0  0  0  0
   -0.9930   -1.4020   -2.7090 O   0  0  0  0  0  0  0  0  0  0  0  0
   -1.2720   -1.9670   -2.0160 H   0  0  0  0  0  0  0  0  0  0  0  0
  1  2  1  0  0  0  0
  2  3  1  0  0  0  0
  2 10  1  0  0  0  0
  4 13  1  6  0  0  0
  4  5  1  0  0  0  0
  4  2  1  0  0  0  0
  5  9  1  0  0  0  0
  6  5  1  0  0  0  0
  6  8  1  0  0  0  0
  7  6  1  0  0  0  0
  8  9  1  0  0  0  0
  9 10  1  0  0  0  0
 10 11  2  0  0  0  0
 10 12  2  0  0  0  0
 14 13  1  0  0  0  0
 15 14  1  0  0  0  0
 16 13  1  0  0  0  0
 16 17  1  0  0  0  0
M  END
>  <REMARK>
  3 active torsions:
  status: ('A' for Active; 'I' for Inactive)
    1  A    between atoms: C_4  and  C_5 
    2  A    between atoms: C_5  and  O_6 
    3  A    between atoms: C_5  and  O_7 

>  <TORSDO>
F 3

$$$$
C:\Users\siddh\.mgltools\PyRx\Ligands\ZINC000021960676_uff_E=101.57.pdbqt
 OpenBabel04182118313D

 18 17  0  0  1  0  0  0  0  0999 V2000
    0.7080   -0.4880    1.2070 C   0  0  1  0  0  3  0  0  0  0  0  0
   -0.0870   -0.0010   -0.0280 C   0  0  2  0  0  3  0  0  0  0  0  0
   -0.0770    1.5350   -0.1000 C   0  0  0  0  0  1  0  0  0  0  0  0
   -1.4090   -0.4730    0.0200 O   0  0  0  0  0  0  0  0  0  0  0  0
   -1.8050   -0.3070   -0.8750 H   0  0  0  0  0  0  0  0  0  0  0  0
    0.0880   -0.0160    2.4390 N   0  0  0  0  0  0  0  0  0  0  0  0
    0.7580    0.0320    3.6260 C   0  0  0  0  0  0  0  0  0  0  0  0
    1.9270   -0.3260    3.6820 O   0  0  0  0  0  0  0  0  0  0  0  0
   -0.8810    0.3280    2.4010 H   0  0  0  0  0  0  0  0  0  0  0  0
    0.0550    0.5570    4.8820 C   0  0  0  0  0  0  0  0  0  0  0  0
    1.0310    0.6180    6.0790 C   0  0  0  0  0  1  0  0  0  0  0  0
   -0.4890    1.9810    4.6320 C   0  0  0  0  0  1  0  0  0  0  0  0
   -1.1080   -0.3880    5.2380 C   0  0  0  0  0  1  0  0  0  0  0  0
    0.8130   -1.9910    1.2300 C   0  0  0  0  0  3  0  0  0  0  0  0
    2.0130   -2.5880    1.0980 O   0  0  0  0  0  0  0  0  0  0  0  0
    2.0760   -3.5230    1.1130 H   0  0  0  0  0  0  0  0  0  0  0  0
   -0.2930   -2.7470    1.3820 O   0  0  0  0  0  0  0  0  0  0  0  0
   -1.1310   -2.3380    1.4740 H   0  0  0  0  0  0  0  0  0  0  0  0
  1 14  1  1  0  0  0
  1  6  1  0  0  0  0
  2  3  1  1  0  0  0
  2  4  1  0  0  0  0
  2  1  1  0  0  0  0
  5  4  1  0  0  0  0
  6  7  1  0  0  0  0
  7  8  2  0  0  0  0
  7 10  1  0  0  0  0
  9  6  1  0  0  0  0
 10 13  1  0  0  0  0
 10 11  1  0  0  0  0
 12 10  1  0  0  0  0
 14 17  1  0  0  0  0
 15 16  1  0  0  0  0
 15 14  1  0  0  0  0
 17 18  1  0  0  0  0
M  END
>  <REMARK>
  7 active torsions:
  status: ('A' for Active; 'I' for Inactive)
    1  A    between atoms: C_2  and  O_3 
    2  A    between atoms: C_2  and  C_4 
    3  A    between atoms: C_4  and  N_5 
    4  A    between atoms: C_4  and  C_12 
       I    between atoms: N_5  and  C_6 
    5  A    between atoms: C_6  and  C_8 
    6  A    between atoms: C_12  and  O_13 
    7  A    between atoms: C_12  and  O_14 

>  <TORSDO>
F 7

$$$$
C:\Users\siddh\.mgltools\PyRx\Ligands\ZINC000021960671_uff_E=100.83.pdbqt
 OpenBabel04182118313D

 18 17  0  0  1  0  0  0  0  0999 V2000
   -1.4050   -0.5100    0.0400 C   0  0  1  0  0  3  0  0  0  0  0  0
    0.0530    0.0050    0.0100 C   0  0  1  0  0  3  0  0  0  0  0  0
    0.0810    1.5430    0.0330 C   0  0  0  0  0  1  0  0  0  0  0  0
    0.7320   -0.4840    1.1390 O   0  0  0  0  0  0  0  0  0  0  0  0
    1.6940   -0.2760    1.0110 H   0  0  0  0  0  0  0  0  0  0  0  0
   -2.1480   -0.0310   -1.1190 N   0  0  0  0  0  0  0  0  0  0  0  0
   -3.5120    0.0030   -1.1460 C   0  0  0  0  0  0  0  0  0  0  0  0
   -4.1500   -0.3780   -0.1730 O   0  0  0  0  0  0  0  0  0  0  0  0
   -1.6220    0.3270   -1.9280 H   0  0  0  0  0  0  0  0  0  0  0  0
   -4.2470    0.5380   -2.3800 C   0  0  0  0  0  0  0  0  0  0  0  0
   -5.7730    0.5720   -2.1410 C   0  0  0  0  0  1  0  0  0  0  0  0
   -3.7770    1.9750   -2.6960 C   0  0  0  0  0  1  0  0  0  0  0  0
   -3.9540   -0.3810   -3.5810 C   0  0  0  0  0  1  0  0  0  0  0  0
   -1.4410   -2.0160    0.0660 C   0  0  0  0  0  3  0  0  0  0  0  0
   -1.9390   -2.6640    1.1370 O   0  0  0  0  0  0  0  0  0  0  0  0
   -1.9600   -3.6000    1.1500 H   0  0  0  0  0  0  0  0  0  0  0  0
   -0.9690   -2.7230   -0.9800 O   0  0  0  0  0  0  0  0  0  0  0  0
   -0.6210   -2.2770   -1.7270 H   0  0  0  0  0  0  0  0  0  0  0  0
  1 14  1  6  0  0  0
  2  3  1  1  0  0  0
  2  1  1  0  0  0  0
  2  4  1  0  0  0  0
  5  4  1  0  0  0  0
  6  1  1  0  0  0  0
  7  6  1  0  0  0  0
  7  8  2  0  0  0  0
  9  6  1  0  0  0  0
 10 11  1  0  0  0  0
 10  7  1  0  0  0  0
 12 10  1  0  0  0  0
 13 10  1  0  0  0  0
 14 15  1  0  0  0  0
 15 16  1  0  0  0  0
 17 14  1  0  0  0  0
 18 17  1  0  0  0  0
M  END
>  <REMARK>
  7 active torsions:
  status: ('A' for Active; 'I' for Inactive)
    1  A    between atoms: C_2  and  O_3 
    2  A    between atoms: C_2  and  C_4 
    3  A    between atoms: C_4  and  N_5 
    4  A    between atoms: C_4  and  C_12 
       I    between atoms: N_5  and  C_6 
    5  A    between atoms: C_6  and  C_8 
    6  A    between atoms: C_12  and  O_13 
    7  A    between atoms: C_12  and  O_14 

>  <TORSDO>
F 7

$$$$
C:\Users\siddh\.mgltools\PyRx\Ligands\ZINC000021955166_uff_E=551.31.pdbqt
 OpenBabel04182118313D

 19 18  0  0  1  0  0  0  0  0999 V2000
   -2.4050   -5.1190    1.0700 C   0  0  1  0  0  3  0  0  0  0  0  0
   -2.9890   -4.4720   -0.1170 N   0  0  0  0  0  0  0  0  0  0  0  0
   -3.8710   -4.9000   -0.4810 H   0  0  0  0  0  0  0  0  0  0  0  0
   -3.0080   -2.7070    0.0130 S   0  0  0  0  0  0  0  0  0  0  0  0
   -3.8680   -2.3840    1.2450 O   0  0  0  0  0  0  0  0  0  0  0  0
   -3.8890   -2.2510   -1.1600 O   0  0  0  0  0  0  0  0  0  0  0  0
   -1.3450   -1.9770   -0.0050 C   0  0  0  0  0  2  0  0  0  0  0  0
   -1.3930   -0.4550    0.0050 C   0  0  0  0  0  2  0  0  0  0  0  0
    0.0310    0.1130   -0.0060 C   0  0  0  0  0  2  0  0  0  0  0  0
    0.0190    1.6360    0.0070 C   0  0  0  0  0  1  0  0  0  0  0  0
   -3.4640   -5.5530    2.0590 C   0  0  0  0  0  3  0  0  0  0  0  0
   -4.7730   -5.3570    1.8040 O   0  0  0  0  0  0  0  0  0  0  0  0
   -5.4170   -5.6320    2.4270 H   0  0  0  0  0  0  0  0  0  0  0  0
   -3.0970   -6.1340    3.2180 O   0  0  0  0  0  0  0  0  0  0  0  0
   -2.1900   -6.2750    3.4050 H   0  0  0  0  0  0  0  0  0  0  0  0
   -1.5240   -6.3050    0.6270 C   0  0  2  0  0  3  0  0  0  0  0  0
   -0.3910   -5.8410   -0.3050 C   0  0  0  0  0  1  0  0  0  0  0  0
   -2.2910   -7.3160    0.0190 O   0  0  0  0  0  0  0  0  0  0  0  0
   -2.6100   -6.9760   -0.8570 H   0  0  0  0  0  0  0  0  0  0  0  0
  1 11  1  1  0  0  0
  2  4  1  0  0  0  0
  2  1  1  0  0  0  0
  3  2  1  0  0  0  0
  4  5  2  0  0  0  0
  6  4  2  0  0  0  0
  7  8  1  0  0  0  0
  7  4  1  0  0  0  0
  9  8  1  0  0  0  0
  9 10  1  0  0  0  0
 11 14  1  0  0  0  0
 12 11  1  0  0  0  0
 12 13  1  0  0  0  0
 14 15  1  0  0  0  0
 16 17  1  6  0  0  0
 16  1  1  0  0  0  0
 18 16  1  0  0  0  0
 19 18  1  0  0  0  0
M  END
>  <REMARK>
  10 active torsions:
  status: ('A' for Active; 'I' for Inactive)
    1  A    between atoms: C_2  and  C_3 
    2  A    between atoms: C_3  and  C_4 
    3  A    between atoms: C_4  and  S_5 
    4  A    between atoms: S_5  and  N_8 
    5  A    between atoms: N_8  and  C_9 
    6  A    between atoms: C_9  and  C_10 
    7  A    between atoms: C_9  and  C_13 
    8  A    between atoms: C_10  and  O_11 
    9  A    between atoms: C_10  and  O_12 
   10  A    between atoms: C_13  and  O_15 

>  <TORSDO>
F 10

$$$$
C:\Users\siddh\.mgltools\PyRx\Ligands\ZINC000021955162_uff_E=558.86.pdbqt
 OpenBabel04182118313D

 19 18  0  0  1  0  0  0  0  0999 V2000
   -2.4270   -5.0910    1.1160 C   0  0  2  0  0  3  0  0  0  0  0  0
   -3.1970   -4.4830    0.0190 N   0  0  0  0  0  0  0  0  0  0  0  0
   -2.9560   -4.8900   -0.9130 H   0  0  0  0  0  0  0  0  0  0  0  0
   -3.0260   -2.7190    0.0020 S   0  0  0  0  0  0  0  0  0  0  0  0
   -3.8810   -2.2340    1.1840 O   0  0  0  0  0  0  0  0  0  0  0  0
   -3.8720   -2.2660   -1.1970 O   0  0  0  0  0  0  0  0  0  0  0  0
   -1.3470   -2.0300   -0.0070 C   0  0  0  0  0  2  0  0  0  0  0  0
   -1.3910   -0.5060    0.0020 C   0  0  0  0  0  2  0  0  0  0  0  0
    0.0290    0.0640   -0.0030 C   0  0  0  0  0  2  0  0  0  0  0  0
    0.0070    1.5870    0.0090 C   0  0  0  0  0  1  0  0  0  0  0  0
   -0.9410   -5.1410    0.8110 C   0  0  0  0  0  3  0  0  0  0  0  0
   -0.0490   -5.1390    1.8230 O   0  0  0  0  0  0  0  0  0  0  0  0
    0.8690   -5.1700    1.6380 H   0  0  0  0  0  0  0  0  0  0  0  0
   -0.4990   -5.2240   -0.4580 O   0  0  0  0  0  0  0  0  0  0  0  0
   -1.1110   -5.2260   -1.1680 H   0  0  0  0  0  0  0  0  0  0  0  0
   -3.0060   -6.4920    1.4070 C   0  0  2  0  0  3  0  0  0  0  0  0
   -2.4230   -7.1380    2.6700 C   0  0  0  0  0  1  0  0  0  0  0  0
   -2.8710   -7.3460    0.2960 O   0  0  0  0  0  0  0  0  0  0  0  0
   -1.9040   -7.5320    0.1690 H   0  0  0  0  0  0  0  0  0  0  0  0
  1 11  1  6  0  0  0
  1 16  1  0  0  0  0
  2  1  1  0  0  0  0
  3  2  1  0  0  0  0
  4  2  1  0  0  0  0
  4  5  2  0  0  0  0
  6  4  2  0  0  0  0
  7  4  1  0  0  0  0
  7  8  1  0  0  0  0
  9  8  1  0  0  0  0
  9 10  1  0  0  0  0
 11 12  1  0  0  0  0
 13 12  1  0  0  0  0
 14 11  1  0  0  0  0
 15 14  1  0  0  0  0
 16 17  1  1  0  0  0
 18 16  1  0  0  0  0
 19 18  1  0  0  0  0
M  END
>  <REMARK>
  10 active torsions:
  status: ('A' for Active; 'I' for Inactive)
    1  A    between atoms: C_2  and  C_3 
    2  A    between atoms: C_3  and  C_4 
    3  A    between atoms: C_4  and  S_5 
    4  A    between atoms: S_5  and  N_8 
    5  A    between atoms: N_8  and  C_9 
    6  A    between atoms: C_9  and  C_10 
    7  A    between atoms: C_9  and  C_13 
    8  A    between atoms: C_10  and  O_11 
    9  A    between atoms: C_10  and  O_12 
   10  A    between atoms: C_13  and  O_15 

>  <TORSDO>
F 10

$$$$
C:\Users\siddh\.mgltools\PyRx\Ligands\ZINC000021955154_uff_E=537.81.pdbqt
 OpenBabel04182118313D

 19 18  0  0  1  0  0  0  0  0999 V2000
   -2.4630   -5.0870    1.0630 C   0  0  2  0  0  3  0  0  0  0  0  0
   -3.1530   -4.4630   -0.0790 N   0  0  0  0  0  0  0  0  0  0  0  0
   -2.8510   -4.8540   -1.0000 H   0  0  0  0  0  0  0  0  0  0  0  0
   -2.9790   -2.6960   -0.0540 S   0  0  0  0  0  0  0  0  0  0  0  0
   -3.8490   -2.2370    1.1280 O   0  0  0  0  0  0  0  0  0  0  0  0
   -3.8140   -2.2120   -1.2490 O   0  0  0  0  0  0  0  0  0  0  0  0
   -1.3030   -1.9910   -0.0250 C   0  0  0  0  0  2  0  0  0  0  0  0
   -1.3550   -0.4650   -0.0080 C   0  0  0  0  0  2  0  0  0  0  0  0
    0.0610    0.1190   -0.0010 C   0  0  0  0  0  2  0  0  0  0  0  0
    0.0280    1.6430    0.0110 C   0  0  0  0  0  1  0  0  0  0  0  0
   -0.9710   -5.2160    0.8360 C   0  0  0  0  0  3  0  0  0  0  0  0
   -0.1810   -5.6600    1.8320 O   0  0  0  0  0  0  0  0  0  0  0  0
    0.7430   -5.7420    1.6960 H   0  0  0  0  0  0  0  0  0  0  0  0
   -0.4190   -4.9070   -0.3550 O   0  0  0  0  0  0  0  0  0  0  0  0
   -0.9600   -4.5980   -1.0550 H   0  0  0  0  0  0  0  0  0  0  0  0
   -3.0730   -6.4750    1.3670 C   0  0  1  0  0  3  0  0  0  0  0  0
   -4.5760   -6.3920    1.6640 C   0  0  0  0  0  1  0  0  0  0  0  0
   -2.8220   -7.3880    0.3260 O   0  0  0  0  0  0  0  0  0  0  0  0
   -3.3320   -7.0950   -0.4730 H   0  0  0  0  0  0  0  0  0  0  0  0
  1 11  1  6  0  0  0
  1 16  1  0  0  0  0
  2  4  1  0  0  0  0
  2  1  1  0  0  0  0
  3  2  1  0  0  0  0
  4  7  1  0  0  0  0
  4  5  2  0  0  0  0
  6  4  2  0  0  0  0
  7  8  1  0  0  0  0
  8  9  1  0  0  0  0
  9 10  1  0  0  0  0
 11 12  1  0  0  0  0
 13 12  1  0  0  0  0
 14 11  1  0  0  0  0
 15 14  1  0  0  0  0
 16 17  1  6  0  0  0
 18 16  1  0  0  0  0
 19 18  1  0  0  0  0
M  END
>  <REMARK>
  10 active torsions:
  status: ('A' for Active; 'I' for Inactive)
    1  A    between atoms: C_2  and  C_3 
    2  A    between atoms: C_3  and  C_4 
    3  A    between atoms: C_4  and  S_5 
    4  A    between atoms: S_5  and  N_8 
    5  A    between atoms: N_8  and  C_9 
    6  A    between atoms: C_9  and  C_10 
    7  A    between atoms: C_9  and  C_13 
    8  A    between atoms: C_10  and  O_11 
    9  A    between atoms: C_10  and  O_12 
   10  A    between atoms: C_13  and  O_15 

>  <TORSDO>
F 10

$$$$
C:\Users\siddh\.mgltools\PyRx\Ligands\ZINC000021782355_uff_E=191.70.pdbqt
 OpenBabel04182118313D

 19 20  0  0  0  0  0  0  0  0999 V2000
   -0.0520    1.4770   -0.0240 C   0  0  0  0  0  1  0  0  0  0  0  0
   -0.0310   -0.0020    0.0040 N   0  0  0  0  0  0  0  0  0  0  0  0
   -0.0810   -0.7040   -1.1860 C   0  0  0  0  0  0  0  0  0  0  0  0
   -0.1390   -0.1120   -2.2530 O   0  0  0  0  0  0  0  0  0  0  0  0
   -0.0600   -2.0990   -1.1850 C   0  0  0  0  0  0  0  0  0  0  0  0
   -0.0960   -2.6910   -2.2540 O   0  0  0  0  0  0  0  0  0  0  0  0
    0.0190   -2.8020    0.0030 N   0  0  0  0  0  0  0  0  0  0  0  0
    0.0650   -2.1120    1.2020 C   0  0  0  0  0  0  0  0  0  0  0  0
    0.1230   -2.7900    2.4480 C   0  0  0  0  0  3  0  0  0  0  0  0
    0.1410   -2.0800    3.6480 C   0  0  0  0  0  3  0  0  0  0  0  0
    0.1130   -0.6920    3.6430 C   0  0  0  0  0  3  0  0  0  0  0  0
    0.0670    0.0040    2.4380 C   0  0  0  0  0  3  0  0  0  0  0  0
    0.0350   -0.6850    1.1990 C   0  0  0  0  0  0  0  0  0  0  0  0
    0.0560   -4.2860   -0.0460 C   0  0  0  0  0  2  0  0  0  0  0  0
    1.4540   -4.8040    0.1580 C   0  0  0  0  0  3  0  0  0  0  0  0
    2.4870   -3.9540    0.3210 O   0  0  0  0  0  0  0  0  0  0  0  0
    3.3530   -4.2890    0.4480 H   0  0  0  0  0  0  0  0  0  0  0  0
    1.6840   -6.1300    0.1220 O   0  0  0  0  0  0  0  0  0  0  0  0
    0.9710   -6.7270    0.0090 H   0  0  0  0  0  0  0  0  0  0  0  0
  1  2  1  0  0  0  0
  2 13  1  0  0  0  0
  3  5  1  0  0  0  0
  3  2  1  0  0  0  0
  4  3  2  0  0  0  0
  5  7  1  0  0  0  0
  6  5  2  0  0  0  0
  7  8  1  0  0  0  0
  8  9  1  0  0  0  0
  9 10  2  0  0  0  0
 11 10  1  0  0  0  0
 12 11  2  0  0  0  0
 13  8  2  0  0  0  0
 13 12  1  0  0  0  0
 14  7  1  0  0  0  0
 14 15  1  0  0  0  0
 15 16  1  0  0  0  0
 16 17  1  0  0  0  0
 18 15  1  0  0  0  0
 19 18  1  0  0  0  0
M  END
>  <REMARK>
  4 active torsions:
  status: ('A' for Active; 'I' for Inactive)
    1  A    between atoms: N_7  and  C_8 
    2  A    between atoms: C_8  and  C_9 
    3  A    between atoms: C_9  and  O_10 
    4  A    between atoms: C_9  and  O_11 

>  <TORSDO>
F 4

$$$$
C:\Users\siddh\.mgltools\PyRx\Ligands\ZINC000020921316_uff_E=231.23.pdbqt
 OpenBabel04182118313D

 18 17  0  0  0  0  0  0  0  0999 V2000
    0.7020   -2.9370    0.5240 C   0  0  0  0  0  0  0  0  0  0  0  0
    1.0450   -2.7850   -0.8790 S   0  0  0  0  0  0  0  0  0  0  0  0
   -0.6360   -2.6120    0.9920 N   0  0  0  0  0  0  0  0  0  0  0  0
   -0.9820   -2.8060    2.3950 C   0  0  0  0  0  1  0  0  0  0  0  0
   -1.6590   -2.0470    0.1040 C   0  0  0  0  0  2  0  0  0  0  0  0
   -1.6090   -0.5110    0.0970 C   0  0  0  0  0  3  0  0  0  0  0  0
   -0.3110   -0.1090   -0.3070 O   0  0  0  0  0  0  0  0  0  0  0  0
   -0.3300    1.1150   -1.0080 C   0  0  0  0  0  1  0  0  0  0  0  0
   -1.8820   -0.0620    1.4130 O   0  0  0  0  0  0  0  0  0  0  0  0
   -2.4360    1.2370    1.4280 C   0  0  0  0  0  1  0  0  0  0  0  0
    1.7100   -3.3790    1.4540 N   0  0  0  0  0  0  0  0  0  0  0  0
    1.4490   -3.5170    2.4390 H   0  0  0  0  0  0  0  0  0  0  0  0
    3.0980   -3.6050    1.0630 C   0  0  0  0  0  2  0  0  0  0  0  0
    3.9830   -4.0250    2.2070 C   0  0  0  0  0  3  0  0  0  0  0  0
    3.4990   -4.1640    3.4570 O   0  0  0  0  0  0  0  0  0  0  0  0
    4.0680   -4.4270    4.1540 H   0  0  0  0  0  0  0  0  0  0  0  0
    5.2880   -4.2620    1.9770 O   0  0  0  0  0  0  0  0  0  0  0  0
    5.6360   -4.1680    1.1110 H   0  0  0  0  0  0  0  0  0  0  0  0
  1  3  1  0  0  0  0
  1 11  1  0  0  0  0
  2  1  2  0  0  0  0
  3  4  1  0  0  0  0
  5  3  1  0  0  0  0
  6  5  1  0  0  0  0
  6  9  1  0  0  0  0
  7  6  1  0  0  0  0
  8  7  1  0  0  0  0
  9 10  1  0  0  0  0
 11 12  1  0  0  0  0
 13 11  1  0  0  0  0
 13 14  1  0  0  0  0
 14 15  1  0  0  0  0
 15 16  1  0  0  0  0
 17 14  1  0  0  0  0
 18 17  1  0  0  0  0
M  END
>  <REMARK>
  10 active torsions:
  status: ('A' for Active; 'I' for Inactive)
    1  A    between atoms: O_2  and  C_3 
    2  A    between atoms: C_3  and  C_4 
    3  A    between atoms: C_3  and  O_14 
    4  A    between atoms: C_4  and  N_5 
    5  A    between atoms: N_5  and  C_7 
    6  A    between atoms: C_7  and  N_9 
    7  A    between atoms: N_9  and  C_10 
    8  A    between atoms: C_10  and  C_11 
    9  A    between atoms: C_11  and  O_12 
   10  A    between atoms: C_11  and  O_13 

>  <TORSDO>
F 10

$$$$
C:\Users\siddh\.mgltools\PyRx\Ligands\ZINC000020596774_uff_E=390.34.pdbqt
 OpenBabel04182118313D

 19 20  0  0  0  0  0  0  0  0999 V2000
    0.0180   -0.1730    0.0140 O   0  0  0  0  0  0  0  0  0  0  0  0
    0.0130    1.1730   -0.0100 C   0  0  0  0  0  3  0  0  0  0  0  0
    0.0270   -1.1080    0.0600 H   0  0  0  0  0  0  0  0  0  0  0  0
    1.1800    1.8470   -0.0170 O   0  0  0  0  0  0  0  0  0  0  0  0
    1.1800    2.7830   -0.0340 H   0  0  0  0  0  0  0  0  0  0  0  0
   -1.2560    1.9030   -0.0140 C   0  0  0  0  0  0  0  0  0  0  0  0
   -2.4770    1.3300    0.0260 N   0  0  0  0  0  0  0  0  0  0  0  0
   -3.3650    2.3120    0.0390 N   0  0  0  0  0  2  0  0  0  0  0  0
   -2.6780    0.3300    0.0420 H   0  0  0  0  0  0  0  0  0  0  0  0
   -2.7460    3.4840    0.0010 N   0  0  0  0  0  0  0  0  0  0  0  0
   -1.4250    3.2650   -0.0340 C   0  0  0  0  0  3  0  0  0  0  0  0
   -3.4080    4.7750    0.0530 C   0  0  0  0  0  2  0  0  0  0  0  0
   -4.4290    4.9370   -1.0850 C   0  0  0  0  0  2  0  0  0  0  0  0
   -5.0660    6.2750   -1.0890 N   0  0  0  0  0  0  0  0  0  0  0  0
   -6.1570    6.3130   -2.0830 C   0  0  0  0  0  2  0  0  0  0  0  0
   -6.7940    7.7100   -2.0920 C   0  0  0  0  0  2  0  0  0  0  0  0
   -7.3040    8.0370   -0.8130 O   0  0  0  0  0  0  0  0  0  0  0  0
   -6.2460    8.0510    0.1250 C   0  0  0  0  0  2  0  0  0  0  0  0
   -5.6020    6.6710    0.2300 C   0  0  0  0  0  2  0  0  0  0  0  0
  1  3  1  0  0  0  0
  2  1  1  0  0  0  0
  4  2  1  0  0  0  0
  5  4  1  0  0  0  0
  6  2  1  0  0  0  0
  6  7  1  0  0  0  0
  7  8  1  0  0  0  0
  7  9  1  0  0  0  0
 10  8  1  0  0  0  0
 10 12  1  0  0  0  0
 11  6  2  0  0  0  0
 11 10  1  0  0  0  0
 13 12  1  0  0  0  0
 14 13  1  0  0  0  0
 14 19  1  0  0  0  0
 15 14  1  0  0  0  0
 16 15  1  0  0  0  0
 16 17  1  0  0  0  0
 17 18  1  0  0  0  0
 18 19  1  0  0  0  0
M  END
>  <REMARK>
  5 active torsions:
  status: ('A' for Active; 'I' for Inactive)
    1  A    between atoms: C_2  and  O_3 
    2  A    between atoms: C_2  and  C_4 
    3  A    between atoms: N_6  and  C_7 
    4  A    between atoms: C_7  and  C_8 
    5  A    between atoms: C_8  and  N_9 

>  <TORSDO>
F 5

$$$$
C:\Users\siddh\.mgltools\PyRx\Ligands\ZINC000020593837_uff_E=521.91.pdbqt
 OpenBabel04182118313D

 22 23  0  0  1  0  0  0  0  0999 V2000
    0.0400   -0.1230    0.0010 O   0  0  0  0  0  0  0  0  0  0  0  0
   -0.0190    1.2240    0.0070 C   0  0  0  0  0  3  0  0  0  0  0  0
    0.1510   -1.0540   -0.0110 H   0  0  0  0  0  0  0  0  0  0  0  0
    1.1230    1.9360    0.0040 O   0  0  0  0  0  0  0  0  0  0  0  0
    1.0920    2.8720    0.0090 H   0  0  0  0  0  0  0  0  0  0  0  0
   -1.3410    1.9410    0.0160 C   0  0  0  0  0  2  0  0  0  0  0  0
   -2.5160    0.9600    0.0080 C   0  0  0  0  0  2  0  0  0  0  0  0
   -3.8220    1.6890    0.0250 C   0  0  1  0  0  3  0  0  0  0  0  0
   -4.4500    2.0460    1.1180 O   0  0  0  0  0  0  0  0  0  0  0  0
   -5.5500    2.6600    0.8070 N   0  0  0  0  0  0  0  0  0  0  0  0
   -5.5930    2.6780   -0.5380 C   0  0  0  0  0  0  0  0  0  0  0  0
   -6.2410    3.0490    1.4490 H   0  0  0  0  0  0  0  0  0  0  0  0
   -4.5120    2.0700   -1.0720 N   0  0  0  0  0  0  0  0  0  0  0  0
   -4.2760    1.9330   -2.0550 H   0  0  0  0  0  0  0  0  0  0  0  0
   -6.6880    3.2890   -1.3050 C   0  0  0  0  0  0  0  0  0  0  0  0
   -7.7520    3.8900   -0.7300 N   0  0  0  0  0  0  0  0  0  0  0  0
   -8.4870    4.2960   -1.7820 C   0  0  0  0  0  2  0  0  0  0  0  0
   -7.9500    4.0080    0.2640 H   0  0  0  0  0  0  0  0  0  0  0  0
   -7.8940    3.9560   -2.9380 N   0  0  0  0  0  0  0  0  0  0  0  0
   -6.7670    3.3250   -2.6490 N   0  0  0  0  0  0  0  0  0  0  0  0
   -8.2470    4.1480   -3.9010 H   0  0  0  0  0  0  0  0  0  0  0  0
   -6.0930    2.9420   -3.3120 H   0  0  0  0  0  0  0  0  0  0  0  0
  1  2  1  0  0  0  0
  2  6  1  0  0  0  0
  3  1  1  0  0  0  0
  4  2  1  0  0  0  0
  4  5  1  0  0  0  0
  7  6  1  0  0  0  0
  8  7  1  6  0  0  0
  8  9  1  0  0  0  0
 10  9  1  0  0  0  0
 10 12  1  0  0  0  0
 11 10  1  0  0  0  0
 13 11  1  0  0  0  0
 13  8  1  0  0  0  0
 14 13  1  0  0  0  0
 15 16  1  0  0  0  0
 15 11  2  0  0  0  0
 16 18  1  0  0  0  0
 17 16  1  0  0  0  0
 19 20  1  0  0  0  0
 19 17  1  0  0  0  0
 20 15  1  0  0  0  0
 21 19  1  0  0  0  0
 22 20  1  0  0  0  0
M  END
>  <REMARK>
  5 active torsions:
  status: ('A' for Active; 'I' for Inactive)
    1  A    between atoms: C_2  and  O_3 
    2  A    between atoms: C_2  and  C_4 
    3  A    between atoms: C_4  and  C_5 
    4  A    between atoms: C_5  and  C_6 
    5  A    between atoms: C_9  and  C_10 

>  <TORSDO>
F 5

$$$$
C:\Users\siddh\.mgltools\PyRx\Ligands\ZINC000020447202_uff_E=134.71.pdbqt
 OpenBabel04182118313D

 18 18  0  0  0  0  0  0  0  0999 V2000
    2.4960   -5.6180   -4.3210 N   0  0  0  0  0  0  0  0  0  0  0  0
    3.6030   -6.2420   -3.9000 N   0  0  0  0  0  0  0  0  0  0  0  0
    3.8250   -7.5660   -4.1640 C   0  0  0  0  0  0  0  0  0  0  0  0
    4.8400   -8.1040   -3.7600 O   0  0  0  0  0  0  0  0  0  0  0  0
    2.8890   -8.2890   -4.8980 C   0  0  0  0  0  3  0  0  0  0  0  0
    1.7370   -7.6510   -5.3480 C   0  0  0  0  0  3  0  0  0  0  0  0
    1.5440   -6.3030   -5.0520 C   0  0  0  0  0  0  0  0  0  0  0  0
    0.5370   -5.7370   -5.4500 O   0  0  0  0  0  0  0  0  0  0  0  0
    4.2740   -5.7360   -3.3880 H   0  0  0  0  0  0  0  0  0  0  0  0
    2.3470   -4.1940   -4.0310 C   0  0  0  0  0  2  0  0  0  0  0  0
    1.5760   -3.9590   -2.7210 C   0  0  0  0  0  2  0  0  0  0  0  0
    1.4260   -2.4790   -2.4570 C   0  0  0  0  0  0  0  0  0  0  0  0
    1.8870   -1.6810   -3.2610 O   0  0  0  0  0  0  0  0  0  0  0  0
    0.7090   -1.9870   -1.2100 C   0  0  0  0  0  2  0  0  0  0  0  0
    0.6220   -0.4740   -1.0840 C   0  0  0  0  0  0  0  0  0  0  0  0
    1.1000    0.2560   -1.9430 O   0  0  0  0  0  0  0  0  0  0  0  0
    0.0070    0.0770   -0.0090 O   0  0  0  0  0  0  0  0  0  0  0  0
   -0.0950    1.4460    0.1450 C   0  0  0  0  0  1  0  0  0  0  0  0
  1 10  1  0  0  0  0
  1  2  1  0  0  0  0
  2  9  1  0  0  0  0
  3  2  1  0  0  0  0
  3  4  2  0  0  0  0
  5  3  1  0  0  0  0
  6  7  1  0  0  0  0
  6  5  2  0  0  0  0
  7  1  1  0  0  0  0
  8  7  2  0  0  0  0
 10 11  1  0  0  0  0
 11 12  1  0  0  0  0
 12 14  1  0  0  0  0
 13 12  2  0  0  0  0
 14 15  1  0  0  0  0
 15 17  1  0  0  0  0
 16 15  2  0  0  0  0
 17 18  1  0  0  0  0
M  END
>  <REMARK>
  6 active torsions:
  status: ('A' for Active; 'I' for Inactive)
    1  A    between atoms: O_2  and  C_3 
    2  A    between atoms: C_3  and  C_5 
    3  A    between atoms: C_5  and  C_6 
    4  A    between atoms: C_6  and  C_8 
    5  A    between atoms: C_8  and  C_9 
    6  A    between atoms: C_9  and  N_10 

>  <TORSDO>
F 6

$$$$
C:\Users\siddh\.mgltools\PyRx\Ligands\ZINC000020446203_uff_E=339.90.pdbqt
 OpenBabel04182118313D

 18 19  0  0  1  0  0  0  0  0999 V2000
   -0.0170    1.5090    0.0180 C   0  0  0  0  0  1  0  0  0  0  0  0
    0.0060    0.0140    0.0260 C   0  0  1  0  0  3  0  0  0  0  0  0
    0.0190   -0.6650   -1.1550 N   0  0  0  0  0  0  0  0  0  0  0  0
    0.0110   -0.1420   -2.0300 H   0  0  0  0  0  0  0  0  0  0  0  0
    0.0410   -2.0070   -1.1950 N   0  0  0  0  0  0  0  0  0  0  0  0
    0.0460   -2.7370   -0.0160 C   0  0  0  0  0  0  0  0  0  0  0  0
    0.0550   -3.9580   -0.0290 O   0  0  0  0  0  0  0  0  0  0  0  0
    0.0390   -2.0350    1.1880 C   0  0  0  0  0  0  0  0  0  0  0  0
    0.0480   -2.5050    2.4910 C   0  0  0  0  0  3  0  0  0  0  0  0
    0.0370   -1.3790    3.3040 C   0  0  0  0  0  3  0  0  0  0  0  0
    0.0210   -0.2780    2.4660 C   0  0  0  0  0  3  0  0  0  0  0  0
    0.0210   -0.6960    1.1840 N   0  0  0  0  0  0  0  0  0  0  0  0
    0.0290   -2.6670   -2.5050 C   0  0  0  0  0  2  0  0  0  0  0  0
   -1.3800   -2.9140   -2.9590 C   0  0  0  0  0  3  0  0  0  0  0  0
   -2.4240   -2.5460   -2.1900 O   0  0  0  0  0  0  0  0  0  0  0  0
   -3.3000   -2.7050   -2.4820 H   0  0  0  0  0  0  0  0  0  0  0  0
   -1.6040   -3.5080   -4.1460 O   0  0  0  0  0  0  0  0  0  0  0  0
   -0.8820   -3.7660   -4.6850 H   0  0  0  0  0  0  0  0  0  0  0  0
  2  1  1  6  0  0  0
  2 12  1  0  0  0  0
  3  2  1  0  0  0  0
  4  3  1  0  0  0  0
  5  3  1  0  0  0  0
  5  6  1  0  0  0  0
  6  8  1  0  0  0  0
  7  6  2  0  0  0  0
  8  9  2  0  0  0  0
  9 10  1  0  0  0  0
 11 10  2  0  0  0  0
 12  8  1  0  0  0  0
 12 11  1  0  0  0  0
 13  5  1  0  0  0  0
 14 13  1  0  0  0  0
 14 15  1  0  0  0  0
 16 15  1  0  0  0  0
 17 14  1  0  0  0  0
 18 17  1  0  0  0  0
M  END
>  <REMARK>
  4 active torsions:
  status: ('A' for Active; 'I' for Inactive)
    1  A    between atoms: N_5  and  C_6 
    2  A    between atoms: C_6  and  C_7 
    3  A    between atoms: C_7  and  O_8 
    4  A    between atoms: C_7  and  O_9 

>  <TORSDO>
F 4

$$$$
C:\Users\siddh\.mgltools\PyRx\Ligands\ZINC000020417474_uff_E=202.98.pdbqt
 OpenBabel04182118313D

 18 18  0  0  1  0  0  0  0  0999 V2000
   -0.0280    1.5690    0.0950 C   0  0  0  0  0  1  0  0  0  0  0  0
   -0.0010    0.0330    0.0150 C   0  0  2  0  0  0  0  0  0  0  0  0
   -1.3370   -0.5220    0.2000 N   0  0  0  0  0  0  0  0  0  0  0  0
   -1.3710   -1.2680    1.3190 C   0  0  0  0  0  0  0  0  0  0  0  0
   -2.3680   -1.8500    1.7130 O   0  0  0  0  0  0  0  0  0  0  0  0
   -0.1980   -1.3000    1.9520 N   0  0  0  0  0  0  0  0  0  0  0  0
    0.6650   -0.5560    1.2440 C   0  0  0  0  0  0  0  0  0  0  0  0
    1.8300   -0.3860    1.5720 O   0  0  0  0  0  0  0  0  0  0  0  0
   -2.1430   -0.3700   -0.4240 H   0  0  0  0  0  0  0  0  0  0  0  0
    0.0080   -1.8030    2.8280 H   0  0  0  0  0  0  0  0  0  0  0  0
    0.6560   -0.4960   -1.2850 C   0  0  0  0  0  2  0  0  0  0  0  0
   -0.0850   -0.0340   -2.5490 C   0  0  0  0  0  2  0  0  0  0  0  0
    0.5610   -0.5610   -3.8300 C   0  0  0  0  0  2  0  0  0  0  0  0
   -0.1730   -0.0770   -5.0540 C   0  0  0  0  0  3  0  0  0  0  0  0
   -1.2620    0.7110   -4.9450 O   0  0  0  0  0  0  0  0  0  0  0  0
   -1.7080    1.0040   -5.7160 H   0  0  0  0  0  0  0  0  0  0  0  0
    0.2650   -0.4330   -6.2760 O   0  0  0  0  0  0  0  0  0  0  0  0
    1.0210   -0.9810   -6.3610 H   0  0  0  0  0  0  0  0  0  0  0  0
  2  1  1  1  0  0  0
  2  3  1  0  0  0  0
  2  7  1  0  0  0  0
  3  4  1  0  0  0  0
  4  5  2  0  0  0  0
  4  6  1  0  0  0  0
  6 10  1  0  0  0  0
  7  8  2  0  0  0  0
  7  6  1  0  0  0  0
  9  3  1  0  0  0  0
 11  2  1  0  0  0  0
 12 11  1  0  0  0  0
 13 12  1  0  0  0  0
 14 15  1  0  0  0  0
 14 13  1  0  0  0  0
 16 15  1  0  0  0  0
 17 14  1  0  0  0  0
 18 17  1  0  0  0  0
M  END
>  <REMARK>
  6 active torsions:
  status: ('A' for Active; 'I' for Inactive)
    1  A    between atoms: C_2  and  C_3 
    2  A    between atoms: C_3  and  C_4 
    3  A    between atoms: C_4  and  C_5 
    4  A    between atoms: C_5  and  C_6 
    5  A    between atoms: C_6  and  O_7 
    6  A    between atoms: C_6  and  O_8 

>  <TORSDO>
F 6

$$$$
C:\Users\siddh\.mgltools\PyRx\Ligands\ZINC000020357873_uff_E=299.37.pdbqt
 OpenBabel04182118313D

 16 17  0  0  1  0  0  0  0  0999 V2000
   -1.3690    1.8790    0.0910 C   0  0  1  0  0  3  0  0  0  0  0  0
   -2.3110    1.1650    1.0230 C   0  0  0  0  0  2  0  0  0  0  0  0
   -3.3040    2.2850    1.2700 C   0  0  0  0  0  2  0  0  0  0  0  0
   -2.4750    3.4770    1.5460 N   0  0  1  0  0  0  0  0  0  0  0  0
   -1.2150    3.2270    0.7990 C   0  0  0  0  0  2  0  0  0  0  0  0
   -3.1150    4.6970    1.1630 N   0  0  0  0  0  0  0  0  0  0  0  0
   -4.4080    4.8440    1.8770 C   0  0  0  0  0  2  0  0  0  0  0  0
   -5.0520    6.1910    1.5220 C   0  0  0  0  0  2  0  0  0  0  0  0
   -4.2110    7.2640    1.8960 O   0  0  0  0  0  0  0  0  0  0  0  0
   -2.9810    7.1610    1.2090 C   0  0  0  0  0  2  0  0  0  0  0  0
   -2.2700    5.8500    1.5660 C   0  0  0  0  0  2  0  0  0  0  0  0
   -0.0790    1.1450   -0.1740 C   0  0  0  0  0  3  0  0  0  0  0  0
   -0.1100   -0.0930   -0.7030 O   0  0  0  0  0  0  0  0  0  0  0  0
   -0.1570   -0.5970   -1.4910 H   0  0  0  0  0  0  0  0  0  0  0  0
    1.1090    1.7150    0.1090 O   0  0  0  0  0  0  0  0  0  0  0  0
    1.1400    2.5760    0.4770 H   0  0  0  0  0  0  0  0  0  0  0  0
  1 12  1  1  0  0  0
  1  5  1  0  0  0  0
  1  2  1  0  0  0  0
  2  3  1  0  0  0  0
  3  4  1  0  0  0  0
  4  5  1  6  0  0  0
  6  4  1  0  0  0  0
  6 11  1  0  0  0  0
  6  7  1  0  0  0  0
  8  7  1  0  0  0  0
  8  9  1  0  0  0  0
 10 11  1  0  0  0  0
 10  9  1  0  0  0  0
 12 15  1  0  0  0  0
 13 12  1  0  0  0  0
 14 13  1  0  0  0  0
 15 16  1  0  0  0  0
M  END
>  <REMARK>
  4 active torsions:
  status: ('A' for Active; 'I' for Inactive)
    1  A    between atoms: O_1  and  C_2 
    2  A    between atoms: C_2  and  O_3 
    3  A    between atoms: C_2  and  C_4 
    4  A    between atoms: N_7  and  N_8 

>  <TORSDO>
F 4

$$$$
C:\Users\siddh\.mgltools\PyRx\Ligands\ZINC000020357862_uff_E=310.99.pdbqt
 OpenBabel04182118313D

 17 18  0  0  1  0  0  0  0  0999 V2000
   -1.2640    1.9730   -0.0580 C   0  0  2  0  0  3  0  0  0  0  0  0
   -1.5870    2.5510   -1.4470 C   0  0  0  0  0  2  0  0  0  0  0  0
   -2.2900    3.7960   -1.0520 C   0  0  0  0  0  0  0  0  0  0  0  0
   -2.8470    4.5320   -1.8540 O   0  0  0  0  0  0  0  0  0  0  0  0
   -2.1230    4.1180    0.2470 N   0  0  0  0  0  0  0  0  0  0  0  0
   -1.2510    3.1700    0.9070 C   0  0  0  0  0  2  0  0  0  0  0  0
   -2.5510    5.3460    0.7950 N   0  0  0  0  0  0  0  0  0  0  0  0
   -4.0260    5.4120    0.8050 C   0  0  0  0  0  2  0  0  0  0  0  0
   -4.4720    6.7520    1.4060 C   0  0  0  0  0  2  0  0  0  0  0  0
   -3.9930    6.8900    2.7300 O   0  0  0  0  0  0  0  0  0  0  0  0
   -2.5780    6.8800    2.7240 C   0  0  0  0  0  2  0  0  0  0  0  0
   -2.0530    5.5510    2.1730 C   0  0  0  0  0  2  0  0  0  0  0  0
   -0.0200    1.1340   -0.0120 C   0  0  0  0  0  3  0  0  0  0  0  0
   -0.0940   -0.1750    0.2890 O   0  0  0  0  0  0  0  0  0  0  0  0
   -0.2210   -0.9420    0.8120 H   0  0  0  0  0  0  0  0  0  0  0  0
    1.1780    1.6940   -0.2720 O   0  0  0  0  0  0  0  0  0  0  0  0
    1.2340    2.6050   -0.4830 H   0  0  0  0  0  0  0  0  0  0  0  0
  1 13  1  6  0  0  0
  1  6  1  0  0  0  0
  2  3  1  0  0  0  0
  2  1  1  0  0  0  0
  3  5  1  0  0  0  0
  4  3  2  0  0  0  0
  5  7  1  0  0  0  0
  5  6  1  0  0  0  0
  7  8  1  0  0  0  0
  7 12  1  0  0  0  0
  8  9  1  0  0  0  0
  9 10  1  0  0  0  0
 11 10  1  0  0  0  0
 12 11  1  0  0  0  0
 13 14  1  0  0  0  0
 14 15  1  0  0  0  0
 16 13  1  0  0  0  0
 17 16  1  0  0  0  0
M  END
>  <REMARK>
  4 active torsions:
  status: ('A' for Active; 'I' for Inactive)
    1  A    between atoms: O_1  and  C_2 
    2  A    between atoms: C_2  and  O_3 
    3  A    between atoms: C_2  and  C_4 
    4  A    between atoms: N_8  and  N_9 

>  <TORSDO>
F 4

$$$$
C:\Users\siddh\.mgltools\PyRx\Ligands\ZINC000020357860_uff_E=358.30.pdbqt
 OpenBabel04182118313D

 17 18  0  0  1  0  0  0  0  0999 V2000
    0.0050   -0.1700   -0.0470 O   0  0  0  0  0  0  0  0  0  0  0  0
   -0.0220    1.1730    0.0660 C   0  0  0  0  0  3  0  0  0  0  0  0
    0.0550   -1.0810   -0.2590 H   0  0  0  0  0  0  0  0  0  0  0  0
    1.1420    1.8490   -0.0130 O   0  0  0  0  0  0  0  0  0  0  0  0
    1.1470    2.7830    0.0630 H   0  0  0  0  0  0  0  0  0  0  0  0
   -1.3500    1.9190    0.0050 C   0  0  2  0  0  3  0  0  0  0  0  0
   -1.2150    3.2590    0.7700 C   0  0  0  0  0  2  0  0  0  0  0  0
   -1.5340    2.8860    2.1330 N   0  0  0  0  0  0  0  0  0  0  0  0
   -2.2480    1.7450    2.1560 C   0  0  0  0  0  0  0  0  0  0  0  0
   -2.4300    1.1450    0.8120 C   0  0  0  0  0  2  0  0  0  0  0  0
   -2.8040    1.3260    3.1600 O   0  0  0  0  0  0  0  0  0  0  0  0
   -1.3610    3.7090    3.2660 N   0  0  0  0  0  0  0  0  0  0  0  0
   -0.5340    3.0060    4.2680 C   0  0  0  0  0  2  0  0  0  0  0  0
   -0.3300    3.9100    5.4900 C   0  0  0  0  0  2  0  0  0  0  0  0
    0.3150    5.1140    5.1220 O   0  0  0  0  0  0  0  0  0  0  0  0
   -0.4910    5.8200    4.1970 C   0  0  0  0  0  2  0  0  0  0  0  0
   -0.7030    4.9910    2.9290 C   0  0  0  0  0  2  0  0  0  0  0  0
  1  2  1  0  0  0  0
  3  1  1  0  0  0  0
  4  5  1  0  0  0  0
  4  2  1  0  0  0  0
  6  2  1  1  0  0  0
  6  7  1  0  0  0  0
  6 10  1  0  0  0  0
  7  8  1  0  0  0  0
  8  9  1  0  0  0  0
  8 12  1  0  0  0  0
  9 11  2  0  0  0  0
 10  9  1  0  0  0  0
 12 13  1  0  0  0  0
 13 14  1  0  0  0  0
 15 14  1  0  0  0  0
 16 15  1  0  0  0  0
 17 12  1  0  0  0  0
 17 16  1  0  0  0  0
M  END
>  <REMARK>
  3 active torsions:
  status: ('A' for Active; 'I' for Inactive)
    1  A    between atoms: C_2  and  O_3 
    2  A    between atoms: C_2  and  C_4 
    3  A    between atoms: N_8  and  N_9 

>  <TORSDO>
F 3

$$$$
C:\Users\siddh\.mgltools\PyRx\Ligands\ZINC000020357858_uff_E=266.86.pdbqt
 OpenBabel04182118313D

 19 20  0  0  1  0  0  0  0  0999 V2000
   -1.3160    1.9130    0.1260 C   0  0  1  0  0  3  0  0  0  0  0  0
   -2.3230    1.0690    0.9190 C   0  0  0  0  0  2  0  0  0  0  0  0
   -3.1790    2.1500    1.4690 C   0  0  0  0  0  0  0  0  0  0  0  0
   -4.2510    1.9250    2.0040 O   0  0  0  0  0  0  0  0  0  0  0  0
   -2.5860    3.3680    1.4350 N   0  0  0  0  0  0  0  0  0  0  0  0
   -1.2710    3.2750    0.8460 C   0  0  0  0  0  2  0  0  0  0  0  0
   -3.0560    4.5970    2.0240 C   0  0  0  0  0  0  0  0  0  0  0  0
   -2.2950    5.7220    1.8840 N   0  0  0  0  0  0  0  0  0  0  0  0
   -2.6660    6.9140    2.4180 C   0  0  0  0  0  3  0  0  0  0  0  0
   -1.4210    5.6650    1.3610 H   0  0  0  0  0  0  0  0  0  0  0  0
   -3.8530    7.0030    3.1370 C   0  0  0  0  0  3  0  0  0  0  0  0
   -4.6240    5.8980    3.2920 N   0  0  0  0  0  0  0  0  0  0  0  0
   -4.2620    4.7010    2.7570 C   0  0  0  0  0  3  0  0  0  0  0  0
   -5.4930    5.9660    3.8210 H   0  0  0  0  0  0  0  0  0  0  0  0
    0.0110    1.2480   -0.1160 C   0  0  0  0  0  3  0  0  0  0  0  0
    0.0560    0.0360   -0.7010 O   0  0  0  0  0  0  0  0  0  0  0  0
    0.1200   -0.3910   -1.5330 H   0  0  0  0  0  0  0  0  0  0  0  0
    1.1590    1.8530    0.2480 O   0  0  0  0  0  0  0  0  0  0  0  0
    1.1350    2.6960    0.6560 H   0  0  0  0  0  0  0  0  0  0  0  0
  1 15  1  1  0  0  0
  1  6  1  0  0  0  0
  1  2  1  0  0  0  0
  2  3  1  0  0  0  0
  3  4  2  0  0  0  0
  5  3  1  0  0  0  0
  5  7  1  0  0  0  0
  6  5  1  0  0  0  0
  7 13  2  0  0  0  0
  8  7  1  0  0  0  0
  8  9  1  0  0  0  0
  9 11  2  0  0  0  0
 10  8  1  0  0  0  0
 11 12  1  0  0  0  0
 12 14  1  0  0  0  0
 13 12  1  0  0  0  0
 15 18  1  0  0  0  0
 16 15  1  0  0  0  0
 17 16  1  0  0  0  0
 18 19  1  0  0  0  0
M  END
>  <REMARK>
  4 active torsions:
  status: ('A' for Active; 'I' for Inactive)
    1  A    between atoms: O_1  and  C_2 
    2  A    between atoms: C_2  and  O_3 
    3  A    between atoms: C_2  and  C_4 
    4  A    between atoms: N_8  and  C_9 

>  <TORSDO>
F 4

$$$$
C:\Users\siddh\.mgltools\PyRx\Ligands\ZINC000020357856_uff_E=239.54.pdbqt
 OpenBabel04182118313D

 19 20  0  0  1  0  0  0  0  0999 V2000
   -1.3100    1.8990    0.1240 C   0  0  1  0  0  3  0  0  0  0  0  0
   -2.3530    1.1020    0.9280 C   0  0  0  0  0  2  0  0  0  0  0  0
   -3.1700    2.2250    1.4530 C   0  0  0  0  0  0  0  0  0  0  0  0
   -4.2470    2.0680    2.0070 O   0  0  0  0  0  0  0  0  0  0  0  0
   -2.5320    3.4130    1.3930 N   0  0  0  0  0  0  0  0  0  0  0  0
   -3.0000    4.6300    1.9800 C   0  0  2  0  0  3  0  0  0  0  0  0
   -2.2240    5.7490    1.9300 N   0  0  0  0  0  0  0  0  0  0  0  0
   -1.3190    5.7110    1.4600 H   0  0  0  0  0  0  0  0  0  0  0  0
   -2.6350    6.9140    2.4940 C   0  0  0  0  0  2  0  0  0  0  0  0
   -3.8680    6.9750    3.1400 C   0  0  0  0  0  3  0  0  0  0  0  0
   -4.6530    5.8250    3.1860 C   0  0  0  0  0  3  0  0  0  0  0  0
   -4.2090    4.6790    2.6080 N   0  0  0  0  0  0  0  0  0  0  0  0
   -4.7890    3.8420    2.6450 H   0  0  0  0  0  0  0  0  0  0  0  0
   -1.2200    3.2740    0.8180 C   0  0  0  0  0  2  0  0  0  0  0  0
   -0.0060    1.1870   -0.1040 C   0  0  0  0  0  3  0  0  0  0  0  0
    0.0010   -0.0380   -0.6630 O   0  0  0  0  0  0  0  0  0  0  0  0
    0.0110   -0.5030   -1.4760 H   0  0  0  0  0  0  0  0  0  0  0  0
    1.1610    1.7640    0.2460 O   0  0  0  0  0  0  0  0  0  0  0  0
    1.1640    2.6160    0.6360 H   0  0  0  0  0  0  0  0  0  0  0  0
  1 15  1  1  0  0  0
  1 14  1  0  0  0  0
  1  2  1  0  0  0  0
  2  3  1  0  0  0  0
  3  4  2  0  0  0  0
  5  3  1  0  0  0  0
  6  5  1  1  0  0  0
  6 12  1  0  0  0  0
  7  6  1  0  0  0  0
  7  9  1  0  0  0  0
  8  7  1  0  0  0  0
  9 10  1  0  0  0  0
 10 11  2  0  0  0  0
 12 13  1  0  0  0  0
 12 11  1  0  0  0  0
 14  5  1  0  0  0  0
 15 18  1  0  0  0  0
 16 15  1  0  0  0  0
 17 16  1  0  0  0  0
 18 19  1  0  0  0  0
M  END
>  <REMARK>
  3 active torsions:
  status: ('A' for Active; 'I' for Inactive)
    1  A    between atoms: O_1  and  C_2 
    2  A    between atoms: C_2  and  O_3 
    3  A    between atoms: C_2  and  C_4 
       I    between atoms: N_8  and  C_9 

>  <TORSDO>
F 3

$$$$
C:\Users\siddh\.mgltools\PyRx\Ligands\ZINC000020322864_uff_E=426.44.pdbqt
 OpenBabel04182118313D

 20 21  0  0  0  0  0  0  0  0999 V2000
   -2.2540    0.8390    0.1090 N   0  0  0  0  0  0  0  0  0  0  0  0
   -3.1150    0.4900    1.0850 C   0  0  0  0  0  2  0  0  0  0  0  0
   -4.2290   -0.0740    0.4940 C   0  0  0  0  0  0  0  0  0  0  0  0
   -3.9910    0.0140   -0.8730 C   0  0  0  0  0  3  0  0  0  0  0  0
   -2.7830    0.5660   -1.0730 N   0  0  0  0  0  0  0  0  0  0  0  0
   -2.3490    0.7440   -1.9790 H   0  0  0  0  0  0  0  0  0  0  0  0
   -5.4300   -0.5990    1.2070 C   0  0  0  0  0  0  0  0  0  0  0  0
   -5.6780   -0.1270    2.3080 O   0  0  0  0  0  0  0  0  0  0  0  0
   -6.2650   -1.5650    0.6780 N   0  0  0  0  0  0  0  0  0  0  0  0
   -7.5250   -1.9150    1.3270 C   0  0  0  0  0  2  0  0  0  0  0  0
   -5.9230   -2.3650   -0.4930 C   0  0  0  0  0  2  0  0  0  0  0  0
   -7.5410   -3.4250    1.5930 C   0  0  0  0  0  2  0  0  0  0  0  0
   -7.3260   -4.1390    0.3870 O   0  0  0  0  0  0  0  0  0  0  0  0
   -6.0320   -3.8460   -0.1110 C   0  0  0  0  0  2  0  0  0  0  0  0
   -0.9250    1.4180    0.2810 C   0  0  0  0  0  2  0  0  0  0  0  0
    0.1320    0.5130   -0.2930 C   0  0  0  0  0  3  0  0  0  0  0  0
   -0.1960   -0.6710   -0.8490 O   0  0  0  0  0  0  0  0  0  0  0  0
   -0.6390   -1.0180   -1.5980 H   0  0  0  0  0  0  0  0  0  0  0  0
    1.4240    0.8870   -0.2480 O   0  0  0  0  0  0  0  0  0  0  0  0
    1.6620    1.7080    0.1360 H   0  0  0  0  0  0  0  0  0  0  0  0
  1 15  1  0  0  0  0
  1  2  1  0  0  0  0
  3  2  1  0  0  0  0
  3  7  1  0  0  0  0
  4  3  2  0  0  0  0
  5  4  1  0  0  0  0
  5  1  1  0  0  0  0
  6  5  1  0  0  0  0
  7  8  2  0  0  0  0
  9  7  1  0  0  0  0
  9 10  1  0  0  0  0
 10 12  1  0  0  0  0
 11 14  1  0  0  0  0
 11  9  1  0  0  0  0
 13 12  1  0  0  0  0
 14 13  1  0  0  0  0
 16 19  1  0  0  0  0
 16 15  1  0  0  0  0
 17 16  1  0  0  0  0
 18 17  1  0  0  0  0
 19 20  1  0  0  0  0
M  END
>  <REMARK>
  5 active torsions:
  status: ('A' for Active; 'I' for Inactive)
    1  A    between atoms: O_1  and  C_2 
    2  A    between atoms: C_2  and  O_3 
    3  A    between atoms: C_2  and  C_4 
    4  A    between atoms: C_4  and  N_5 
    5  A    between atoms: C_7  and  C_8 
       I    between atoms: C_8  and  N_10 

>  <TORSDO>
F 5

$$$$
C:\Users\siddh\.mgltools\PyRx\Ligands\ZINC000020258699_uff_E=295.27.pdbqt
 OpenBabel04182118313D

 20 20  0  0  1  0  0  0  0  0999 V2000
    0.6120   -0.5620   -1.1720 N   0  0  0  0  0  0  0  0  0  0  0  0
   -0.0400   -0.5470   -2.3690 C   0  0  0  0  0  0  0  0  0  0  0  0
   -1.1800   -0.1050   -2.4430 O   0  0  0  0  0  0  0  0  0  0  0  0
    1.5470   -0.9990   -1.1260 H   0  0  0  0  0  0  0  0  0  0  0  0
    0.6400   -1.1000   -3.6030 C   0  0  0  0  0  2  0  0  0  0  0  0
   -0.2790   -1.1100   -4.8340 C   0  0  0  0  0  2  0  0  0  0  0  0
    0.4250   -1.6190   -6.0070 N   0  0  0  0  0  0  0  0  0  0  0  0
    1.4940   -1.0560   -6.5450 N   0  0  0  0  0  0  0  0  0  0  0  0
    1.8240   -1.8100   -7.6100 C   0  0  0  0  0  2  0  0  0  0  0  0
    1.9730   -0.2170   -6.2190 H   0  0  0  0  0  0  0  0  0  0  0  0
    0.9740   -2.8510   -7.7590 N   0  0  0  0  0  0  0  0  0  0  0  0
    0.1100   -2.7000   -6.7370 C   0  0  0  0  0  2  0  0  0  0  0  0
    0.9850   -3.5780   -8.4740 H   0  0  0  0  0  0  0  0  0  0  0  0
    0.0170   -0.0160    0.0420 C   0  0  2  0  0  3  0  0  0  0  0  0
   -0.0130    1.5160   -0.0140 C   0  0  0  0  0  1  0  0  0  0  0  0
    0.7880   -0.4610    1.2580 C   0  0  0  0  0  3  0  0  0  0  0  0
    0.1580   -1.1290    2.2440 O   0  0  0  0  0  0  0  0  0  0  0  0
    0.6360   -1.4070    3.0010 H   0  0  0  0  0  0  0  0  0  0  0  0
    2.1040   -0.1950    1.3690 O   0  0  0  0  0  0  0  0  0  0  0  0
    2.5480    0.2700    0.6870 H   0  0  0  0  0  0  0  0  0  0  0  0
  1  4  1  0  0  0  0
  1 14  1  0  0  0  0
  2  1  1  0  0  0  0
  3  2  2  0  0  0  0
  5  2  1  0  0  0  0
  6  5  1  0  0  0  0
  7  6  1  0  0  0  0
  8 10  1  0  0  0  0
  8  7  1  0  0  0  0
  9  8  1  0  0  0  0
 11  9  1  0  0  0  0
 11 12  1  0  0  0  0
 12  7  1  0  0  0  0
 13 11  1  0  0  0  0
 14 15  1  6  0  0  0
 14 16  1  0  0  0  0
 16 19  1  0  0  0  0
 16 17  1  0  0  0  0
 17 18  1  0  0  0  0
 20 19  1  0  0  0  0
M  END
>  <REMARK>
  7 active torsions:
  status: ('A' for Active; 'I' for Inactive)
    1  A    between atoms: C_2  and  N_3 
    2  A    between atoms: C_2  and  C_15 
       I    between atoms: N_3  and  C_4 
    3  A    between atoms: C_4  and  C_6 
    4  A    between atoms: C_6  and  C_7 
    5  A    between atoms: C_7  and  N_8 
    6  A    between atoms: C_15  and  O_16 
    7  A    between atoms: C_15  and  O_17 

>  <TORSDO>
F 7

$$$$
C:\Users\siddh\.mgltools\PyRx\Ligands\ZINC000020258509_uff_E=256.97.pdbqt
 OpenBabel04182118313D

 20 20  0  0  1  0  0  0  0  0999 V2000
   -0.0180   -0.2120    2.4340 N   0  0  0  0  0  0  0  0  0  0  0  0
    0.2660   -0.8380    3.6100 C   0  0  0  0  0  0  0  0  0  0  0  0
    1.1940   -1.6330    3.6780 O   0  0  0  0  0  0  0  0  0  0  0  0
   -0.8390    0.4100    2.3960 H   0  0  0  0  0  0  0  0  0  0  0  0
    0.7390   -0.4810    1.2170 C   0  0  1  0  0  3  0  0  0  0  0  0
    0.0310    0.1040   -0.0410 C   0  0  0  0  0  3  0  0  0  0  0  0
   -0.0500    1.6400   -0.0710 C   0  0  0  0  0  1  0  0  0  0  0  0
    0.7030   -0.4090   -1.3240 C   0  0  0  0  0  1  0  0  0  0  0  0
    2.1670   -0.0080    1.3720 C   0  0  0  0  0  3  0  0  0  0  0  0
    2.4340    1.2770    1.6740 O   0  0  0  0  0  0  0  0  0  0  0  0
    3.3220    1.5620    1.7680 H   0  0  0  0  0  0  0  0  0  0  0  0
    3.1830   -0.8830    1.2380 O   0  0  0  0  0  0  0  0  0  0  0  0
    3.0050   -1.7780    1.0280 H   0  0  0  0  0  0  0  0  0  0  0  0
   -0.6220   -0.6110    4.8080 C   0  0  0  0  0  2  0  0  0  0  0  0
   -0.2810   -1.5220    5.8880 N   0  0  0  0  0  0  0  0  0  0  0  0
    0.7440   -1.3570    6.7420 C   0  0  0  0  0  0  0  0  0  0  0  0
    0.7560   -2.3790    7.8230 C   0  0  0  0  0  2  0  0  0  0  0  0
    1.4930   -0.3940    6.7080 O   0  0  0  0  0  0  0  0  0  0  0  0
   -0.1570   -3.4320    7.1730 C   0  0  0  0  0  2  0  0  0  0  0  0
   -1.1010   -2.6420    6.2540 C   0  0  0  0  0  2  0  0  0  0  0  0
  1  2  1  0  0  0  0
  2  3  2  0  0  0  0
  2 14  1  0  0  0  0
  4  1  1  0  0  0  0
  5  6  1  6  0  0  0
  5  9  1  0  0  0  0
  5  1  1  0  0  0  0
  7  6  1  0  0  0  0
  8  6  1  0  0  0  0
  9 10  1  0  0  0  0
 10 11  1  0  0  0  0
 12  9  1  0  0  0  0
 13 12  1  0  0  0  0
 14 15  1  0  0  0  0
 15 20  1  0  0  0  0
 15 16  1  0  0  0  0
 16 17  1  0  0  0  0
 18 16  2  0  0  0  0
 19 17  1  0  0  0  0
 20 19  1  0  0  0  0
M  END
>  <REMARK>
  7 active torsions:
  status: ('A' for Active; 'I' for Inactive)
    1  A    between atoms: C_2  and  C_4 
    2  A    between atoms: C_4  and  N_5 
    3  A    between atoms: C_4  and  C_15 
       I    between atoms: N_5  and  C_6 
    4  A    between atoms: C_6  and  C_8 
    5  A    between atoms: C_8  and  N_9 
    6  A    between atoms: C_15  and  O_16 
    7  A    between atoms: C_15  and  O_17 

>  <TORSDO>
F 7

$$$$
C:\Users\siddh\.mgltools\PyRx\Ligands\ZINC000020254804_uff_E=702.78.pdbqt
 OpenBabel04182118313D

 18 18  0  0  0  0  0  0  0  0999 V2000
   -3.8780    1.4840    0.4450 S   0  0  0  0  0  0  0  0  0  0  0  0
   -4.9300    0.3700    0.5780 O   0  0  0  0  0  0  0  0  0  0  0  0
   -3.9380    2.2360    1.7840 O   0  0  0  0  0  0  0  0  0  0  0  0
   -2.2810    0.7390    0.2880 N   0  0  0  0  0  0  0  0  0  0  0  0
   -2.3010    0.1230   -0.5570 H   0  0  0  0  0  0  0  0  0  0  0  0
   -1.2820    1.7910    0.0950 C   0  0  0  0  0  2  0  0  0  0  0  0
    0.1020    1.2180    0.0220 C   0  0  0  0  0  3  0  0  0  0  0  0
    0.3070   -0.1100    0.1240 O   0  0  0  0  0  0  0  0  0  0  0  0
    0.6770   -0.9510    0.3080 H   0  0  0  0  0  0  0  0  0  0  0  0
    1.1540    2.0420   -0.1440 O   0  0  0  0  0  0  0  0  0  0  0  0
    1.0180    2.9660   -0.2160 H   0  0  0  0  0  0  0  0  0  0  0  0
   -4.2690    2.5700   -0.9210 N   0  0  0  0  0  0  0  0  0  0  0  0
   -5.1310    2.0140   -1.9750 C   0  0  0  0  0  2  0  0  0  0  0  0
   -6.3160    2.8840   -2.4070 C   0  0  0  0  0  2  0  0  0  0  0  0
   -7.1820    3.4040   -1.2530 C   0  0  0  0  0  2  0  0  0  0  0  0
   -6.6260    4.7010   -0.6480 C   0  0  0  0  0  2  0  0  0  0  0  0
   -5.3150    4.5790    0.1270 C   0  0  0  0  0  2  0  0  0  0  0  0
   -4.1440    4.0130   -0.6850 C   0  0  0  0  0  2  0  0  0  0  0  0
  1  2  2  0  0  0  0
  1  3  2  0  0  0  0
  4  1  1  0  0  0  0
  5  4  1  0  0  0  0
  6  4  1  0  0  0  0
  7  6  1  0  0  0  0
  7  8  1  0  0  0  0
  8  9  1  0  0  0  0
 10  7  1  0  0  0  0
 11 10  1  0  0  0  0
 12 18  1  0  0  0  0
 12  1  1  0  0  0  0
 13 12  1  0  0  0  0
 14 13  1  0  0  0  0
 14 15  1  0  0  0  0
 15 16  1  0  0  0  0
 16 17  1  0  0  0  0
 18 17  1  0  0  0  0
M  END
>  <REMARK>
  6 active torsions:
  status: ('A' for Active; 'I' for Inactive)
    1  A    between atoms: O_1  and  C_2 
    2  A    between atoms: C_2  and  O_3 
    3  A    between atoms: C_2  and  C_4 
    4  A    between atoms: C_4  and  N_5 
    5  A    between atoms: N_5  and  S_6 
    6  A    between atoms: S_6  and  N_9 

>  <TORSDO>
F 6

$$$$
C:\Users\siddh\.mgltools\PyRx\Ligands\ZINC000020244868_uff_E=606.03.pdbqt
 OpenBabel04182118313D

 17 17  0  0  1  0  0  0  0  0999 V2000
    0.1080   -0.1050    0.0060 O   0  0  0  0  0  0  0  0  0  0  0  0
    0.0380    1.2380    0.0130 C   0  0  0  0  0  3  0  0  0  0  0  0
    0.2390   -1.0330   -0.0070 H   0  0  0  0  0  0  0  0  0  0  0  0
    1.1770    1.9610    0.0200 O   0  0  0  0  0  0  0  0  0  0  0  0
    1.1380    2.8970    0.0250 H   0  0  0  0  0  0  0  0  0  0  0  0
   -1.2840    1.9510    0.0110 C   0  0  0  0  0  2  0  0  0  0  0  0
   -2.7040    0.8010    0.0070 S   0  0  0  0  0  0  0  0  0  0  0  0
   -2.7170   -0.1690   -1.1850 O   0  0  0  0  0  0  0  0  0  0  0  0
   -2.6840   -0.1690    1.1980 O   0  0  0  0  0  0  0  0  0  0  0  0
   -4.3310    1.5030    0.0500 N   0  0  0  0  0  0  0  0  0  0  0  0
   -4.4050    2.0550    0.9350 H   0  0  0  0  0  0  0  0  0  0  0  0
   -4.5130    2.3850   -1.1050 C   0  0  0  0  0  2  0  0  0  0  0  0
   -5.8760    3.0840   -1.0440 C   0  0  1  0  0  3  0  0  0  0  0  0
   -5.9640    3.9340    0.0900 O   0  0  0  0  0  0  0  0  0  0  0  0
   -6.4690    5.1680   -0.3810 C   0  0  0  0  0  2  0  0  0  0  0  0
   -7.1300    4.8910   -1.7170 C   0  0  0  0  0  2  0  0  0  0  0  0
   -6.1160    3.9490   -2.2790 C   0  0  0  0  0  2  0  0  0  0  0  0
  1  2  1  0  0  0  0
  2  4  1  0  0  0  0
  3  1  1  0  0  0  0
  4  5  1  0  0  0  0
  6  2  1  0  0  0  0
  7  6  1  0  0  0  0
  7 10  1  0  0  0  0
  7  9  2  0  0  0  0
  8  7  2  0  0  0  0
 10 11  1  0  0  0  0
 12 10  1  0  0  0  0
 13 12  1  6  0  0  0
 13 14  1  0  0  0  0
 15 14  1  0  0  0  0
 16 15  1  0  0  0  0
 17 16  1  0  0  0  0
 17 13  1  0  0  0  0
M  END
>  <REMARK>
  6 active torsions:
  status: ('A' for Active; 'I' for Inactive)
    1  A    between atoms: C_2  and  O_3 
    2  A    between atoms: C_2  and  C_4 
    3  A    between atoms: C_4  and  S_5 
    4  A    between atoms: S_5  and  N_8 
    5  A    between atoms: N_8  and  C_9 
    6  A    between atoms: C_9  and  C_10 

>  <TORSDO>
F 6

$$$$
C:\Users\siddh\.mgltools\PyRx\Ligands\ZINC000020216661_uff_E=287.74.pdbqt
 OpenBabel04182118313D

 21 22  0  0  0  0  0  0  0  0999 V2000
   -0.1150    1.5570   -0.0120 C   0  0  0  0  0  1  0  0  0  0  0  0
   -0.0270    0.0380    0.0140 C   0  0  0  0  0  0  0  0  0  0  0  0
   -0.0930   -0.6950   -1.2160 C   0  0  0  0  0  0  0  0  0  0  0  0
   -0.0600   -2.0940   -1.1630 C   0  0  0  0  0  2  0  0  0  0  0  0
    0.0500   -2.7460    0.0140 N   0  0  0  0  0  0  0  0  0  0  0  0
    0.0690   -3.7660    0.0050 H   0  0  0  0  0  0  0  0  0  0  0  0
    0.1370   -2.1090    1.2090 C   0  0  0  0  0  0  0  0  0  0  0  0
    0.1080   -0.6920    1.2550 C   0  0  0  0  0  0  0  0  0  0  0  0
    0.2200   -0.0820    2.5360 C   0  0  0  0  0  0  0  0  0  0  0  0
    0.2360    1.1290    2.6510 O   0  0  0  0  0  0  0  0  0  0  0  0
    0.3190   -0.8550    3.6740 N   0  0  0  0  0  0  0  0  0  0  0  0
    0.3920   -0.2050    4.9970 C   0  0  0  0  0  1  0  0  0  0  0  0
    0.3270   -2.2290    3.5860 C   0  0  0  0  0  0  0  0  0  0  0  0
    0.4100   -2.8990    4.6060 O   0  0  0  0  0  0  0  0  0  0  0  0
    0.2510   -2.8510    2.3570 N   0  0  0  0  0  0  0  0  0  0  0  0
    0.2900   -4.3250    2.2650 C   0  0  0  0  0  1  0  0  0  0  0  0
   -0.1870   -0.0680   -2.5820 C   0  0  0  0  0  3  0  0  0  0  0  0
   -0.3770   -0.8490   -3.6640 O   0  0  0  0  0  0  0  0  0  0  0  0
   -0.4370   -0.4630   -4.5160 H   0  0  0  0  0  0  0  0  0  0  0  0
   -0.0370    1.2550   -2.7780 O   0  0  0  0  0  0  0  0  0  0  0  0
    0.0970    1.8250   -2.0460 H   0  0  0  0  0  0  0  0  0  0  0  0
  1  2  1  0  0  0  0
  2  8  1  0  0  0  0
  3  4  1  0  0  0  0
  3  2  2  0  0  0  0
  4  5  1  0  0  0  0
  5  7  1  0  0  0  0
  6  5  1  0  0  0  0
  7  8  2  0  0  0  0
  7 15  1  0  0  0  0
  8  9  1  0  0  0  0
  9 10  2  0  0  0  0
  9 11  1  0  0  0  0
 11 12  1  0  0  0  0
 13 11  1  0  0  0  0
 13 14  2  0  0  0  0
 15 13  1  0  0  0  0
 16 15  1  0  0  0  0
 17  3  1  0  0  0  0
 18 17  1  0  0  0  0
 19 18  1  0  0  0  0
 20 17  1  0  0  0  0
 20 21  1  0  0  0  0
M  END
>  <REMARK>
  3 active torsions:
  status: ('A' for Active; 'I' for Inactive)
    1  A    between atoms: C_3  and  C_4 
    2  A    between atoms: C_4  and  O_5 
    3  A    between atoms: C_4  and  O_6 

>  <TORSDO>
F 3

$$$$
C:\Users\siddh\.mgltools\PyRx\Ligands\ZINC000020204856_uff_E=374.70.pdbqt
 OpenBabel04182118313D

 19 19  0  0  1  0  0  0  0  0999 V2000
    0.6430   -2.0430    1.0100 C   0  0  2  0  0  3  0  0  0  0  0  0
    1.6340   -2.7100    0.3600 N   0  0  0  0  0  0  0  0  0  0  0  0
    2.4300   -2.2430   -0.0750 H   0  0  0  0  0  0  0  0  0  0  0  0
    1.4680   -4.0470    0.3450 N   0  0  0  0  0  0  0  0  0  0  0  0
    2.1280   -4.6870   -0.0970 H   0  0  0  0  0  0  0  0  0  0  0  0
    0.3360   -4.4640    0.9760 C   0  0  1  0  0  3  0  0  0  0  0  0
   -0.4660   -3.1430    1.5620 S   0  0  0  0  0  0  0  0  0  0  0  0
   -0.0770   -5.8240    1.0950 N   0  0  0  0  0  0  0  0  0  0  0  0
    0.6520   -6.8580    0.5760 C   0  0  0  0  0  0  0  0  0  0  0  0
    1.7000   -6.6440   -0.0170 O   0  0  0  0  0  0  0  0  0  0  0  0
   -0.9580   -6.0240    1.5920 H   0  0  0  0  0  0  0  0  0  0  0  0
    0.1960   -8.2560    0.7170 C   0  0  0  0  0  3  0  0  0  0  0  0
    0.9340   -9.2560    0.1950 O   0  0  0  0  0  0  0  0  0  0  0  0
    0.6480  -10.1440    0.2820 H   0  0  0  0  0  0  0  0  0  0  0  0
   -0.9510   -8.5460    1.3610 O   0  0  0  0  0  0  0  0  0  0  0  0
   -1.4700   -7.8560    1.7270 H   0  0  0  0  0  0  0  0  0  0  0  0
    0.5900   -0.5580    1.1370 C   0  0  0  0  0  2  0  0  0  0  0  0
   -0.0640   -0.0310    0.0030 O   0  0  0  0  0  0  0  0  0  0  0  0
   -0.0160    1.3770    0.0500 C   0  0  0  0  0  1  0  0  0  0  0  0
  1 17  1  6  0  0  0
  1  7  1  0  0  0  0
  2  1  1  0  0  0  0
  3  2  1  0  0  0  0
  4  2  1  0  0  0  0
  4  6  1  0  0  0  0
  5  4  1  0  0  0  0
  6  8  1  6  0  0  0
  6  7  1  0  0  0  0
  8 11  1  0  0  0  0
  9 12  1  0  0  0  0
  9  8  1  0  0  0  0
 10  9  2  0  0  0  0
 12 15  1  0  0  0  0
 13 14  1  0  0  0  0
 13 12  1  0  0  0  0
 15 16  1  0  0  0  0
 18 19  1  0  0  0  0
 18 17  1  0  0  0  0
M  END
>  <REMARK>
  6 active torsions:
  status: ('A' for Active; 'I' for Inactive)
    1  A    between atoms: O_2  and  C_3 
    2  A    between atoms: C_3  and  C_4 
    3  A    between atoms: C_9  and  N_10 
       I    between atoms: N_10  and  C_11 
    4  A    between atoms: C_11  and  C_13 
    5  A    between atoms: C_13  and  O_14 
    6  A    between atoms: C_13  and  O_15 

>  <TORSDO>
F 6

$$$$
C:\Users\siddh\.mgltools\PyRx\Ligands\ZINC000020185114_uff_E=203.12.pdbqt
 OpenBabel04182118313D

 20 20  0  0  0  0  0  0  0  0999 V2000
   -1.2950   -0.8050    0.3430 C   0  0  0  0  0  0  0  0  0  0  0  0
   -2.5490   -0.1460    0.4000 C   0  0  0  0  0  3  0  0  0  0  0  0
   -3.7280   -0.7980    0.0460 C   0  0  0  0  0  3  0  0  0  0  0  0
   -3.7000   -2.1180   -0.3760 C   0  0  0  0  0  3  0  0  0  0  0  0
   -2.4940   -2.8040   -0.4410 C   0  0  0  0  0  3  0  0  0  0  0  0
   -1.2760   -2.1790   -0.0840 C   0  0  0  0  0  0  0  0  0  0  0  0
   -0.0480   -2.9190   -0.1770 N   0  0  0  0  0  0  0  0  0  0  0  0
    0.0700   -4.2420    0.1520 C   0  0  0  0  0  0  0  0  0  0  0  0
   -0.8890   -4.8720    0.5710 O   0  0  0  0  0  0  0  0  0  0  0  0
    0.8040   -2.4250   -0.4670 H   0  0  0  0  0  0  0  0  0  0  0  0
    1.3850   -4.9150    0.0800 C   0  0  0  0  0  3  0  0  0  0  0  0
    1.5050   -6.1970    0.4740 O   0  0  0  0  0  0  0  0  0  0  0  0
    2.3370   -6.6260    0.4290 H   0  0  0  0  0  0  0  0  0  0  0  0
    2.4750   -4.2510   -0.3520 O   0  0  0  0  0  0  0  0  0  0  0  0
    2.4010   -3.3580   -0.6280 H   0  0  0  0  0  0  0  0  0  0  0  0
   -0.0380   -0.0750    0.7920 C   0  0  0  0  0  0  0  0  0  0  0  0
   -0.0360    1.2490    1.1020 N   0  0  0  0  0  0  0  0  0  0  0  0
    0.8400    1.6940    1.4130 H   0  0  0  0  0  0  0  0  0  0  0  0
   -0.8670    1.8440    1.0350 H   0  0  0  0  0  0  0  0  0  0  0  0
    1.0120   -0.6830    0.9090 O   0  0  0  0  0  0  0  0  0  0  0  0
  1  2  1  0  0  0  0
  1 16  1  0  0  0  0
  3  2  2  0  0  0  0
  4  3  1  0  0  0  0
  5  4  2  0  0  0  0
  5  6  1  0  0  0  0
  6  1  2  0  0  0  0
  7  6  1  0  0  0  0
  7  8  1  0  0  0  0
  8  9  2  0  0  0  0
 10  7  1  0  0  0  0
 11  8  1  0  0  0  0
 11 12  1  0  0  0  0
 13 12  1  0  0  0  0
 14 11  1  0  0  0  0
 15 14  1  0  0  0  0
 16 20  2  0  0  0  0
 16 17  1  0  0  0  0
 17 18  1  0  0  0  0
 19 17  1  0  0  0  0
M  END
>  <REMARK>
  5 active torsions:
  status: ('A' for Active; 'I' for Inactive)
       I    between atoms: N_1  and  C_2 
    1  A    between atoms: C_2  and  C_4 
    2  A    between atoms: C_9  and  N_10 
       I    between atoms: N_10  and  C_11 
    3  A    between atoms: C_11  and  C_13 
    4  A    between atoms: C_13  and  O_14 
    5  A    between atoms: C_13  and  O_15 

>  <TORSDO>
F 5

$$$$
C:\Users\siddh\.mgltools\PyRx\Ligands\ZINC000020082512_uff_E=681.15.pdbqt
 OpenBabel04182118313D

 18 18  0  0  1  0  0  0  0  0999 V2000
   -1.3830    2.0710   -0.0440 C   0  0  1  0  0  3  0  0  0  0  0  0
   -1.8720    2.0790   -1.5050 C   0  0  0  0  0  2  0  0  0  0  0  0
   -3.3830    1.9810   -1.3560 C   0  0  1  0  0  3  0  0  0  0  0  0
   -3.4650    0.9540   -0.2280 C   0  0  0  0  0  2  0  0  0  0  0  0
   -2.4850    1.4640    0.7200 N   0  0  0  0  0  0  0  0  0  0  0  0
   -2.1900    0.5460    2.2150 S   0  0  0  0  0  0  0  0  0  0  0  0
   -1.4660    1.5410    3.1350 O   0  0  0  0  0  0  0  0  0  0  0  0
   -3.5640    0.4980    2.8980 O   0  0  0  0  0  0  0  0  0  0  0  0
   -1.3930   -1.0860    2.2200 C   0  0  0  0  0  3  0  0  0  0  0  0
   -1.5210   -1.6460    3.4770 F   0  0  0  0  0  0  0  0  0  0  0  0
   -2.0040   -1.9060    1.2930 F   0  0  0  0  0  0  0  0  0  0  0  0
   -0.0600    1.3550    0.0760 C   0  0  0  0  0  3  0  0  0  0  0  0
    0.0600    0.0770   -0.3390 O   0  0  0  0  0  0  0  0  0  0  0  0
    0.2510   -0.5550   -1.0040 H   0  0  0  0  0  0  0  0  0  0  0  0
    1.0120    1.9940    0.5770 O   0  0  0  0  0  0  0  0  0  0  0  0
    0.9350    2.8820    0.8670 H   0  0  0  0  0  0  0  0  0  0  0  0
   -3.8890    3.2190   -0.9230 O   0  0  0  0  0  0  0  0  0  0  0  0
   -4.8700    3.1040   -0.8240 H   0  0  0  0  0  0  0  0  0  0  0  0
  1 12  1  6  0  0  0
  1  5  1  0  0  0  0
  2  3  1  0  0  0  0
  2  1  1  0  0  0  0
  3 17  1  1  0  0  0
  3  4  1  0  0  0  0
  4  5  1  0  0  0  0
  5  6  1  0  0  0  0
  6  9  1  0  0  0  0
  6  8  2  0  0  0  0
  6  7  2  0  0  0  0
  9 10  1  0  0  0  0
 11  9  1  0  0  0  0
 12 15  1  0  0  0  0
 13 12  1  0  0  0  0
 14 13  1  0  0  0  0
 15 16  1  0  0  0  0
 17 18  1  0  0  0  0
M  END
>  <REMARK>
  6 active torsions:
  status: ('A' for Active; 'I' for Inactive)
    1  A    between atoms: O_1  and  C_2 
    2  A    between atoms: C_2  and  O_3 
    3  A    between atoms: C_2  and  C_4 
    4  A    between atoms: C_6  and  O_7 
    5  A    between atoms: N_9  and  S_10 
    6  A    between atoms: S_10  and  C_13 

>  <TORSDO>
F 6

$$$$
C:\Users\siddh\.mgltools\PyRx\Ligands\ZINC000020082506_uff_E=635.72.pdbqt
 OpenBabel04182118313D

 18 18  0  0  1  0  0  0  0  0999 V2000
   -1.1630    2.0100   -0.0840 C   0  0  2  0  0  3  0  0  0  0  0  0
   -1.9020    1.8810   -1.4100 C   0  0  0  0  0  2  0  0  0  0  0  0
   -2.6280    3.2040   -1.4270 C   0  0  1  0  0  3  0  0  0  0  0  0
   -1.5020    4.1520   -1.0060 C   0  0  0  0  0  2  0  0  0  0  0  0
   -0.6400    3.3860   -0.0890 N   0  0  0  0  0  0  0  0  0  0  0  0
   -0.5210    4.1020    1.5400 S   0  0  0  0  0  0  0  0  0  0  0  0
    0.5570    3.2710    2.2520 O   0  0  0  0  0  0  0  0  0  0  0  0
    0.2450    5.4160    1.3220 O   0  0  0  0  0  0  0  0  0  0  0  0
   -1.9800    4.3420    2.5970 C   0  0  0  0  0  3  0  0  0  0  0  0
   -1.5900    4.9750    3.7630 F   0  0  0  0  0  0  0  0  0  0  0  0
   -2.9090    5.1280    1.9450 F   0  0  0  0  0  0  0  0  0  0  0  0
   -0.0730    0.9820    0.0470 C   0  0  0  0  0  3  0  0  0  0  0  0
   -0.3830   -0.3280    0.0460 O   0  0  0  0  0  0  0  0  0  0  0  0
   -0.9230   -1.0940    0.0450 H   0  0  0  0  0  0  0  0  0  0  0  0
    1.2160    1.3590    0.1570 O   0  0  0  0  0  0  0  0  0  0  0  0
    1.4390    2.2690    0.1580 H   0  0  0  0  0  0  0  0  0  0  0  0
   -3.1580    3.4940   -2.6940 O   0  0  0  0  0  0  0  0  0  0  0  0
   -3.4450    4.4430   -2.6750 H   0  0  0  0  0  0  0  0  0  0  0  0
  1 12  1  6  0  0  0
  2  1  1  0  0  0  0
  3 17  1  6  0  0  0
  3  2  1  0  0  0  0
  3  4  1  0  0  0  0
  4  5  1  0  0  0  0
  5  1  1  0  0  0  0
  5  6  1  0  0  0  0
  6  7  2  0  0  0  0
  6  9  1  0  0  0  0
  8  6  2  0  0  0  0
  9 10  1  0  0  0  0
 11  9  1  0  0  0  0
 12 15  1  0  0  0  0
 13 12  1  0  0  0  0
 14 13  1  0  0  0  0
 15 16  1  0  0  0  0
 17 18  1  0  0  0  0
M  END
>  <REMARK>
  6 active torsions:
  status: ('A' for Active; 'I' for Inactive)
    1  A    between atoms: O_1  and  C_2 
    2  A    between atoms: C_2  and  O_3 
    3  A    between atoms: C_2  and  C_4 
    4  A    between atoms: C_6  and  O_7 
    5  A    between atoms: N_9  and  S_10 
    6  A    between atoms: S_10  and  C_13 

>  <TORSDO>
F 6

$$$$
C:\Users\siddh\.mgltools\PyRx\Ligands\ZINC000020082504_uff_E=638.04.pdbqt
 OpenBabel04182118313D

 18 18  0  0  1  0  0  0  0  0999 V2000
   -1.1830    2.0190   -0.0820 C   0  0  2  0  0  3  0  0  0  0  0  0
   -1.9430    1.8980   -1.3980 C   0  0  0  0  0  2  0  0  0  0  0  0
   -2.6700    3.2250   -1.4210 C   0  0  2  0  0  3  0  0  0  0  0  0
   -1.5440    4.1670   -0.9850 C   0  0  0  0  0  2  0  0  0  0  0  0
   -0.6690    3.3980   -0.0820 N   0  0  0  0  0  0  0  0  0  0  0  0
   -0.5300    4.1030    1.5500 S   0  0  0  0  0  0  0  0  0  0  0  0
    0.5450    3.2570    2.2480 O   0  0  0  0  0  0  0  0  0  0  0  0
    0.2470    5.4100    1.3340 O   0  0  0  0  0  0  0  0  0  0  0  0
   -1.9780    4.3500    2.6200 C   0  0  0  0  0  3  0  0  0  0  0  0
   -1.5750    4.9810    3.7820 F   0  0  0  0  0  0  0  0  0  0  0  0
   -2.9100    5.1400    1.9760 F   0  0  0  0  0  0  0  0  0  0  0  0
   -0.0850    0.9960    0.0240 C   0  0  0  0  0  3  0  0  0  0  0  0
   -0.3890   -0.3160    0.0180 O   0  0  0  0  0  0  0  0  0  0  0  0
   -0.9180   -1.0890    0.0080 H   0  0  0  0  0  0  0  0  0  0  0  0
    1.2030    1.3800    0.1160 O   0  0  0  0  0  0  0  0  0  0  0  0
    1.4220    2.2910    0.1210 H   0  0  0  0  0  0  0  0  0  0  0  0
   -3.6940    3.2090   -0.4600 O   0  0  0  0  0  0  0  0  0  0  0  0
   -4.2720    3.9930   -0.6520 H   0  0  0  0  0  0  0  0  0  0  0  0
  1  5  1  0  0  0  0
  1 12  1  6  0  0  0
  2  1  1  0  0  0  0
  3  2  1  0  0  0  0
  3  4  1  0  0  0  0
  3 17  1  1  0  0  0
  4  5  1  0  0  0  0
  5  6  1  0  0  0  0
  6  7  2  0  0  0  0
  6  9  1  0  0  0  0
  8  6  2  0  0  0  0
  9 10  1  0  0  0  0
 11  9  1  0  0  0  0
 12 15  1  0  0  0  0
 13 12  1  0  0  0  0
 14 13  1  0  0  0  0
 15 16  1  0  0  0  0
 18 17  1  0  0  0  0
M  END
>  <REMARK>
  6 active torsions:
  status: ('A' for Active; 'I' for Inactive)
    1  A    between atoms: O_1  and  C_2 
    2  A    between atoms: C_2  and  O_3 
    3  A    between atoms: C_2  and  C_4 
    4  A    between atoms: C_6  and  O_7 
    5  A    between atoms: N_9  and  S_10 
    6  A    between atoms: S_10  and  C_13 

>  <TORSDO>
F 6

$$$$
C:\Users\siddh\.mgltools\PyRx\Ligands\ZINC000019982928_uff_E=532.85.pdbqt
 OpenBabel04182118313D

 16 15  0  0  0  0  0  0  0  0999 V2000
   -1.0530   -4.1320   -1.3770 S   0  0  0  0  0  0  0  0  0  0  0  0
   -2.5550   -4.3540   -1.6130 O   0  0  0  0  0  0  0  0  0  0  0  0
   -0.4550   -4.6060   -2.7100 O   0  0  0  0  0  0  0  0  0  0  0  0
   -0.8720   -2.3700   -1.3910 N   0  0  0  0  0  0  0  0  0  0  0  0
   -1.4860   -1.9860   -0.6360 H   0  0  0  0  0  0  0  0  0  0  0  0
    0.5250   -2.0110   -1.1340 C   0  0  0  0  0  2  0  0  0  0  0  0
    0.6850   -0.4930   -1.1030 C   0  0  0  0  0  2  0  0  0  0  0  0
   -0.0390    0.0230   -0.0060 O   0  0  0  0  0  0  0  0  0  0  0  0
    0.0010    1.4300   -0.0360 C   0  0  0  0  0  1  0  0  0  0  0  0
   -0.4310   -5.0320    0.0780 C   0  0  0  0  0  2  0  0  0  0  0  0
   -0.6820   -6.5340   -0.0650 C   0  0  0  0  0  2  0  0  0  0  0  0
   -0.1720   -7.3140    1.1160 C   0  0  0  0  0  3  0  0  0  0  0  0
    0.4270   -6.6970    2.1530 O   0  0  0  0  0  0  0  0  0  0  0  0
    0.7390   -7.1990    2.8800 H   0  0  0  0  0  0  0  0  0  0  0  0
   -0.3150   -8.6540    1.1360 O   0  0  0  0  0  0  0  0  0  0  0  0
   -0.7310   -9.0920    0.4190 H   0  0  0  0  0  0  0  0  0  0  0  0
  1 10  1  0  0  0  0
  2  1  2  0  0  0  0
  3  1  2  0  0  0  0
  4  1  1  0  0  0  0
  4  6  1  0  0  0  0
  4  5  1  0  0  0  0
  6  7  1  0  0  0  0
  7  8  1  0  0  0  0
  9  8  1  0  0  0  0
 11 10  1  0  0  0  0
 11 12  1  0  0  0  0
 12 15  1  0  0  0  0
 12 13  1  0  0  0  0
 13 14  1  0  0  0  0
 16 15  1  0  0  0  0
M  END
>  <REMARK>
  9 active torsions:
  status: ('A' for Active; 'I' for Inactive)
    1  A    between atoms: O_2  and  C_3 
    2  A    between atoms: C_3  and  C_4 
    3  A    between atoms: C_4  and  N_5 
    4  A    between atoms: N_5  and  S_6 
    5  A    between atoms: S_6  and  C_9 
    6  A    between atoms: C_9  and  C_10 
    7  A    between atoms: C_10  and  C_11 
    8  A    between atoms: C_11  and  O_12 
    9  A    between atoms: C_11  and  O_13 

>  <TORSDO>
F 9

$$$$
C:\Users\siddh\.mgltools\PyRx\Ligands\ZINC000019961083_uff_E=129.59.pdbqt
 OpenBabel04182118313D

 18 19  0  0  1  0  0  0  0  0999 V2000
    0.0560   -0.0230   -0.2100 O   0  0  0  0  0  0  0  0  0  0  0  0
   -0.0330    1.3190   -0.1170 C   0  0  0  0  0  3  0  0  0  0  0  0
    0.2240   -0.9280   -0.3840 H   0  0  0  0  0  0  0  0  0  0  0  0
    1.0900    2.0610   -0.1220 O   0  0  0  0  0  0  0  0  0  0  0  0
    1.0350    2.9940   -0.0580 H   0  0  0  0  0  0  0  0  0  0  0  0
   -1.3700    1.9920    0.0340 C   0  0  0  0  0  2  0  0  0  0  0  0
   -2.4530    1.0090    0.0270 N   0  0  0  0  0  0  0  0  0  0  0  0
   -3.0000    0.5350    1.2570 C   0  0  1  0  0  3  0  0  0  0  0  0
   -3.9890   -0.4580    1.2380 C   0  0  0  0  0  0  0  0  0  0  0  0
   -2.5490    1.0120    2.4530 N   0  0  0  0  0  0  0  0  0  0  0  0
   -4.4530   -0.9450    0.0660 O   0  0  0  0  0  0  0  0  0  0  0  0
   -4.4920   -0.9480    2.4460 C   0  0  0  0  0  3  0  0  0  0  0  0
   -4.0180   -0.5410   -1.1870 C   0  0  0  0  0  2  0  0  0  0  0  0
   -2.9210    0.5040   -1.1570 C   0  0  0  0  0  0  0  0  0  0  0  0
   -2.4630    0.8980   -2.2210 O   0  0  0  0  0  0  0  0  0  0  0  0
   -4.0130   -0.4400    3.6540 C   0  0  0  0  0  3  0  0  0  0  0  0
   -3.0330    0.5540    3.6370 C   0  0  0  0  0  3  0  0  0  0  0  0
   -1.8270    1.7320    2.4580 H   0  0  0  0  0  0  0  0  0  0  0  0
  1  2  1  0  0  0  0
  2  6  1  0  0  0  0
  3  1  1  0  0  0  0
  4  2  1  0  0  0  0
  4  5  1  0  0  0  0
  7  6  1  0  0  0  0
  7  8  1  0  0  0  0
  8  9  1  1  0  0  0
  8 10  1  0  0  0  0
  9 12  2  0  0  0  0
 10 18  1  0  0  0  0
 10 17  1  0  0  0  0
 11  9  1  0  0  0  0
 12 16  1  0  0  0  0
 13 14  1  0  0  0  0
 13 11  1  0  0  0  0
 14  7  1  0  0  0  0
 15 14  2  0  0  0  0
 17 16  2  0  0  0  0
M  END
>  <REMARK>
  3 active torsions:
  status: ('A' for Active; 'I' for Inactive)
    1  A    between atoms: C_2  and  O_3 
    2  A    between atoms: C_2  and  C_4 
    3  A    between atoms: C_4  and  N_5 

>  <TORSDO>
F 3

$$$$
C:\Users\siddh\.mgltools\PyRx\Ligands\ZINC000019944008_uff_E=331.97.pdbqt
 OpenBabel04182118313D

 18 19  0  0  0  0  0  0  0  0999 V2000
   -0.0650    1.5060    0.0100 C   0  0  0  0  0  1  0  0  0  0  0  0
    0.0090    0.0390    0.0010 N   0  0  0  0  0  0  0  0  0  0  0  0
   -1.1260   -0.7130    0.0030 C   0  0  0  0  0  0  0  0  0  0  0  0
   -1.1060   -2.0960   -0.0050 C   0  0  0  0  0  0  0  0  0  0  0  0
   -2.3980   -2.6920   -0.0010 C   0  0  0  0  0  3  0  0  0  0  0  0
   -3.4300   -1.7440    0.0090 C   0  0  0  0  0  0  0  0  0  0  0  0
   -2.7190   -0.2310    0.0140 S   0  0  0  0  0  0  0  0  0  0  0  0
    0.1130   -2.7570   -0.0140 C   0  0  0  0  0  0  0  0  0  0  0  0
    0.1460   -3.9770   -0.0210 O   0  0  0  0  0  0  0  0  0  0  0  0
    1.2830   -2.0110   -0.0170 N   0  0  0  0  0  0  0  0  0  0  0  0
    2.5980   -2.6660   -0.0260 C   0  0  0  0  0  1  0  0  0  0  0  0
    1.2290   -0.6210   -0.0090 C   0  0  0  0  0  0  0  0  0  0  0  0
    2.2700    0.0220   -0.0120 O   0  0  0  0  0  0  0  0  0  0  0  0
   -4.8660   -2.0520    0.0150 C   0  0  0  0  0  3  0  0  0  0  0  0
   -5.2780   -3.3350    0.0090 O   0  0  0  0  0  0  0  0  0  0  0  0
   -6.1940   -3.5330    0.0120 H   0  0  0  0  0  0  0  0  0  0  0  0
   -5.7760   -1.0600    0.0250 O   0  0  0  0  0  0  0  0  0  0  0  0
   -5.4940   -0.1660    0.0290 H   0  0  0  0  0  0  0  0  0  0  0  0
  2  3  1  0  0  0  0
  2  1  1  0  0  0  0
  3  7  1  0  0  0  0
  4  5  1  0  0  0  0
  4  3  2  0  0  0  0
  5  6  2  0  0  0  0
  6  7  1  0  0  0  0
  6 14  1  0  0  0  0
  8  4  1  0  0  0  0
  9  8  2  0  0  0  0
 10  8  1  0  0  0  0
 10 12  1  0  0  0  0
 11 10  1  0  0  0  0
 12  2  1  0  0  0  0
 13 12  2  0  0  0  0
 14 17  1  0  0  0  0
 15 16  1  0  0  0  0
 15 14  1  0  0  0  0
 17 18  1  0  0  0  0
M  END
>  <REMARK>
  3 active torsions:
  status: ('A' for Active; 'I' for Inactive)
    1  A    between atoms: C_6  and  C_7 
    2  A    between atoms: C_7  and  O_8 
    3  A    between atoms: C_7  and  O_9 

>  <TORSDO>
F 3

$$$$
C:\Users\siddh\.mgltools\PyRx\Ligands\ZINC000019845269_uff_E=178.79.pdbqt
 OpenBabel04182118313D

 20 21  0  0  0  0  0  0  0  0999 V2000
   -1.2680    1.9980    0.2310 C   0  0  0  0  0  0  0  0  0  0  0  0
   -1.2970    3.3800    0.0050 C   0  0  0  0  0  3  0  0  0  0  0  0
   -2.5220    4.0190   -0.1880 C   0  0  0  0  0  2  0  0  0  0  0  0
   -3.6770    3.3050   -0.1630 N   0  0  0  0  0  0  0  0  0  0  0  0
   -4.5610    3.7940   -0.3030 H   0  0  0  0  0  0  0  0  0  0  0  0
   -3.6970    1.9550    0.0440 C   0  0  0  0  0  0  0  0  0  0  0  0
   -2.4730    1.2870    0.2550 C   0  0  0  0  0  3  0  0  0  0  0  0
   -4.9550    1.2550    0.0590 N   0  0  0  0  0  0  0  0  0  0  0  0
   -5.0420   -0.2030    0.0430 C   0  0  0  0  0  2  0  0  0  0  0  0
   -6.1310   -0.6750   -0.8870 C   0  0  0  0  0  0  0  0  0  0  0  0
   -6.9900    0.1970   -1.4840 N   0  0  0  0  0  0  0  0  0  0  0  0
   -6.2280   -1.8720   -1.1220 O   0  0  0  0  0  0  0  0  0  0  0  0
   -6.9680    1.6280   -1.2300 C   0  0  0  0  0  2  0  0  0  0  0  0
   -7.6640   -0.1640   -2.1760 H   0  0  0  0  0  0  0  0  0  0  0  0
   -6.2090    1.9790    0.0510 C   0  0  0  0  0  2  0  0  0  0  0  0
    0.0150    1.2880    0.4460 C   0  0  0  0  0  3  0  0  0  0  0  0
    0.0300   -0.0440    0.6540 O   0  0  0  0  0  0  0  0  0  0  0  0
    0.0570   -0.9010    1.0320 H   0  0  0  0  0  0  0  0  0  0  0  0
    1.1790    1.9630    0.4310 O   0  0  0  0  0  0  0  0  0  0  0  0
    1.1820    2.8890    0.2870 H   0  0  0  0  0  0  0  0  0  0  0  0
  1  7  1  0  0  0  0
  1 16  1  0  0  0  0
  2  1  2  0  0  0  0
  3  4  1  0  0  0  0
  3  2  1  0  0  0  0
  4  6  1  0  0  0  0
  5  4  1  0  0  0  0
  6  8  1  0  0  0  0
  6  7  2  0  0  0  0
  9  8  1  0  0  0  0
 10  9  1  0  0  0  0
 11 13  1  0  0  0  0
 11 10  1  0  0  0  0
 12 10  2  0  0  0  0
 13 15  1  0  0  0  0
 14 11  1  0  0  0  0
 15  8  1  0  0  0  0
 16 17  1  0  0  0  0
 17 18  1  0  0  0  0
 19 16  1  0  0  0  0
 20 19  1  0  0  0  0
M  END
>  <REMARK>
  4 active torsions:
  status: ('A' for Active; 'I' for Inactive)
    1  A    between atoms: O_1  and  C_2 
    2  A    between atoms: C_2  and  O_3 
    3  A    between atoms: C_2  and  C_4 
    4  A    between atoms: C_9  and  N_10 

>  <TORSDO>
F 4

$$$$
C:\Users\siddh\.mgltools\PyRx\Ligands\ZINC000019686380_uff_E=148.85.pdbqt
 OpenBabel04182118313D

 19 20  0  0  1  0  0  0  0  0999 V2000
    0.0280   -0.1350   -0.0280 O   0  0  0  0  0  0  0  0  0  0  0  0
   -0.0310    1.2110   -0.0190 C   0  0  0  0  0  3  0  0  0  0  0  0
    0.1390   -1.0650   -0.0460 H   0  0  0  0  0  0  0  0  0  0  0  0
    1.1110    1.9260   -0.0360 O   0  0  0  0  0  0  0  0  0  0  0  0
    1.0780    2.8620   -0.0290 H   0  0  0  0  0  0  0  0  0  0  0  0
   -1.3590    1.9160    0.0200 C   0  0  1  0  0  3  0  0  0  0  0  0
   -2.4080    0.9540    0.0050 O   0  0  0  0  0  0  0  0  0  0  0  0
   -3.6710    1.6000   -0.0330 C   0  0  0  0  0  2  0  0  0  0  0  0
   -3.8880    2.4170    1.2430 C   0  0  0  0  0  2  0  0  0  0  0  0
   -2.7780    3.3430    1.3680 N   0  0  1  0  0  0  0  0  0  0  0  0
   -1.4440    2.7720    1.2960 C   0  0  0  0  0  2  0  0  0  0  0  0
   -2.9850    4.7480    1.5280 C   0  0  1  0  0  3  0  0  0  0  0  0
   -4.2500    5.2500    1.6110 N   0  0  0  0  0  0  0  0  0  0  0  0
   -1.9220    5.5920    1.6470 N   0  0  0  0  0  0  0  0  0  0  0  0
   -4.4680    6.5750    1.8070 C   0  0  0  0  0  2  0  0  0  0  0  0
   -5.0460    4.6190    1.5260 H   0  0  0  0  0  0  0  0  0  0  0  0
   -3.3870    7.4450    1.9290 C   0  0  0  0  0  3  0  0  0  0  0  0
   -2.0990    6.9230    1.8420 C   0  0  0  0  0  3  0  0  0  0  0  0
   -0.9760    5.2160    1.5880 H   0  0  0  0  0  0  0  0  0  0  0  0
  1  2  1  0  0  0  0
  3  1  1  0  0  0  0
  4  5  1  0  0  0  0
  4  2  1  0  0  0  0
  6  2  1  1  0  0  0
  6 11  1  0  0  0  0
  7  6  1  0  0  0  0
  8  7  1  0  0  0  0
  8  9  1  0  0  0  0
 10  9  1  6  0  0  0
 10 12  1  0  0  0  0
 11 10  1  0  0  0  0
 12 13  1  1  0  0  0
 12 14  1  0  0  0  0
 13 15  1  0  0  0  0
 14 18  1  0  0  0  0
 15 17  1  0  0  0  0
 16 13  1  0  0  0  0
 18 17  2  0  0  0  0
 19 14  1  0  0  0  0
M  END
>  <REMARK>
  2 active torsions:
  status: ('A' for Active; 'I' for Inactive)
    1  A    between atoms: C_2  and  O_3 
    2  A    between atoms: C_2  and  C_4 
       I    between atoms: N_6  and  C_7 

>  <TORSDO>
F 2

$$$$
C:\Users\siddh\.mgltools\PyRx\Ligands\ZINC000019686070_uff_E=816.41.pdbqt
 OpenBabel04182118313D

 19 20  0  0  1  0  0  0  0  0999 V2000
   -0.4780   -2.8170    1.1680 C   0  0  0  0  0  0  0  0  0  0  0  0
   -0.0150   -2.1100    2.0520 O   0  0  0  0  0  0  0  0  0  0  0  0
   -0.4030   -4.1700    1.2950 N   0  0  0  0  0  0  0  0  0  0  0  0
   -0.7900   -5.2230    0.4230 C   0  0  0  0  0  2  0  0  0  0  0  0
   -0.4230   -6.1720    1.6060 C   0  0  2  0  0  3  0  0  0  0  0  0
    0.1310   -4.9310    2.3660 C   0  0  0  0  0  2  0  0  0  0  0  0
   -1.1830   -2.1670   -0.0190 C   0  0  2  0  0  3  0  0  0  0  0  0
   -1.1550   -0.7110    0.0140 N   0  0  0  0  0  0  0  0  0  0  0  0
   -0.0030    0.0300    0.0240 C   0  0  0  0  0  0  0  0  0  0  0  0
   -2.4740   -0.1180   -0.0450 C   0  0  0  0  0  2  0  0  0  0  0  0
   -0.0380    1.5330    0.0390 C   0  0  0  0  0  1  0  0  0  0  0  0
    1.0850   -0.5330    0.0130 O   0  0  0  0  0  0  0  0  0  0  0  0
   -3.3110   -1.2570   -0.6130 C   0  0  0  0  0  2  0  0  0  0  0  0
   -2.6940   -2.4670    0.0580 C   0  0  0  0  0  2  0  0  0  0  0  0
    0.5260   -7.3100    1.3830 C   0  0  0  0  0  3  0  0  0  0  0  0
    0.9500   -8.0350    2.4350 O   0  0  0  0  0  0  0  0  0  0  0  0
    1.5430   -8.7480    2.3040 H   0  0  0  0  0  0  0  0  0  0  0  0
    0.9240   -7.6400    0.1400 O   0  0  0  0  0  0  0  0  0  0  0  0
    0.6320   -7.1380   -0.5950 H   0  0  0  0  0  0  0  0  0  0  0  0
  1  3  1  0  0  0  0
  1  2  2  0  0  0  0
  3  6  1  0  0  0  0
  4  3  1  0  0  0  0
  4  5  1  0  0  0  0
  5 15  1  6  0  0  0
  5  6  1  0  0  0  0
  7  8  1  0  0  0  0
  7 14  1  0  0  0  0
  7  1  1  1  0  0  0
  8  9  1  0  0  0  0
  9 11  1  0  0  0  0
 10  8  1  0  0  0  0
 12  9  2  0  0  0  0
 13 10  1  0  0  0  0
 13 14  1  0  0  0  0
 15 16  1  0  0  0  0
 17 16  1  0  0  0  0
 18 15  1  0  0  0  0
 19 18  1  0  0  0  0
M  END
>  <REMARK>
  4 active torsions:
  status: ('A' for Active; 'I' for Inactive)
       I    between atoms: C_2  and  N_4 
    1  A    between atoms: C_8  and  C_9 
       I    between atoms: C_9  and  N_11 
    2  A    between atoms: C_13  and  C_14 
    3  A    between atoms: C_14  and  O_15 
    4  A    between atoms: C_14  and  O_16 

>  <TORSDO>
F 4

$$$$
C:\Users\siddh\.mgltools\PyRx\Ligands\ZINC000019685926_uff_E=137.41.pdbqt
 OpenBabel04182118313D

 18 18  0  0  0  0  0  0  0  0999 V2000
   -2.5180   -2.7240    0.0110 N   0  0  0  0  0  0  0  0  0  0  0  0
   -3.1440   -2.9690    1.2030 C   0  0  0  0  0  2  0  0  0  0  0  0
   -4.4630   -3.4500    1.2400 C   0  0  0  0  0  0  0  0  0  0  0  0
   -5.1320   -3.6820    0.0320 C   0  0  0  0  0  3  0  0  0  0  0  0
   -4.4930   -3.4320   -1.1790 C   0  0  0  0  0  3  0  0  0  0  0  0
   -3.1830   -2.9490   -1.1850 C   0  0  0  0  0  0  0  0  0  0  0  0
   -2.6340   -2.7270   -2.2510 O   0  0  0  0  0  0  0  0  0  0  0  0
   -1.1380   -2.2040    0.0190 C   0  0  0  0  0  2  0  0  0  0  0  0
   -1.1230   -0.6860   -0.0010 C   0  0  0  0  0  0  0  0  0  0  0  0
    0.0540    0.0200   -0.0220 N   0  0  0  0  0  0  0  0  0  0  0  0
    0.0170    1.4760   -0.0550 C   0  0  0  0  0  1  0  0  0  0  0  0
    1.3390   -0.6660   -0.0110 C   0  0  0  0  0  1  0  0  0  0  0  0
   -2.1910   -0.0850   -0.0040 O   0  0  0  0  0  0  0  0  0  0  0  0
   -5.1370   -3.7030    2.5350 C   0  0  0  0  0  0  0  0  0  0  0  0
   -4.4930   -3.4730    3.6960 O   0  0  0  0  0  0  0  0  0  0  0  0
   -4.9250   -3.6350    4.5110 H   0  0  0  0  0  0  0  0  0  0  0  0
   -6.4040   -4.1620    2.5660 O   0  0  0  0  0  0  0  0  0  0  0  0
   -6.8620   -4.3260    1.7650 H   0  0  0  0  0  0  0  0  0  0  0  0
  1  8  1  0  0  0  0
  1  2  1  0  0  0  0
  2  3  1  0  0  0  0
  3 14  2  0  0  0  0
  4  3  1  0  0  0  0
  5  4  2  0  0  0  0
  6  5  1  0  0  0  0
  6  1  1  0  0  0  0
  7  6  2  0  0  0  0
  9  8  1  0  0  0  0
 10 12  1  0  0  0  0
 10  9  1  0  0  0  0
 11 10  1  0  0  0  0
 13  9  2  0  0  0  0
 14 17  1  0  0  0  0
 14 15  1  0  0  0  0
 15 16  1  0  0  0  0
 18 17  1  0  0  0  0
M  END
>  <REMARK>
  5 active torsions:
  status: ('A' for Active; 'I' for Inactive)
       I    between atoms: N_2  and  C_4 
    1  A    between atoms: C_4  and  C_6 
    2  A    between atoms: C_6  and  N_7 
    3  A    between atoms: C_9  and  C_10 
    4  A    between atoms: C_10  and  O_11 
    5  A    between atoms: C_10  and  O_12 

>  <TORSDO>
F 5

$$$$
C:\Users\siddh\.mgltools\PyRx\Ligands\ZINC000019583672_uff_E=705.55.pdbqt
 OpenBabel04182118313D

 16 16  0  0  1  0  0  0  0  0999 V2000
    1.3840   -1.2190   -2.3190 N   0  0  0  0  0  0  0  0  0  0  0  0
    2.2250   -0.0630   -2.6650 C   0  0  0  0  0  2  0  0  0  0  0  0
    3.5720   -0.3130   -1.9950 C   0  0  0  0  0  2  0  0  0  0  0  0
    3.6590   -1.8200   -2.0910 C   0  0  0  0  0  2  0  0  0  0  0  0
    2.2510   -2.1910   -1.6380 C   0  0  2  0  0  3  0  0  0  0  0  0
   -0.1740   -0.8520   -1.5150 S   0  0  0  0  0  0  0  0  0  0  0  0
   -0.9300   -2.1720   -1.2940 O   0  0  0  0  0  0  0  0  0  0  0  0
   -1.0650   -0.1460   -2.5470 O   0  0  0  0  0  0  0  0  0  0  0  0
   -0.2480    0.1010   -0.0020 N   0  0  0  0  0  0  0  0  0  0  0  0
    0.4940    1.3580   -0.0910 C   0  0  0  0  0  1  0  0  0  0  0  0
    0.1350   -0.6850    1.1730 C   0  0  0  0  0  1  0  0  0  0  0  0
    1.9090   -3.6160   -1.9750 C   0  0  0  0  0  3  0  0  0  0  0  0
    2.6300   -4.6210   -1.4430 O   0  0  0  0  0  0  0  0  0  0  0  0
    2.4190   -5.5100   -1.6510 H   0  0  0  0  0  0  0  0  0  0  0  0
    0.8890   -3.8980   -2.8080 O   0  0  0  0  0  0  0  0  0  0  0  0
    0.3830   -3.2040   -3.1820 H   0  0  0  0  0  0  0  0  0  0  0  0
  1  5  1  0  0  0  0
  1  6  1  0  0  0  0
  2  1  1  0  0  0  0
  2  3  1  0  0  0  0
  4  3  1  0  0  0  0
  4  5  1  0  0  0  0
  5 12  1  6  0  0  0
  6  7  2  0  0  0  0
  6  9  1  0  0  0  0
  8  6  2  0  0  0  0
  9 11  1  0  0  0  0
 10  9  1  0  0  0  0
 12 13  1  0  0  0  0
 14 13  1  0  0  0  0
 15 12  1  0  0  0  0
 16 15  1  0  0  0  0
M  END
>  <REMARK>
  5 active torsions:
  status: ('A' for Active; 'I' for Inactive)
    1  A    between atoms: N_2  and  S_4 
    2  A    between atoms: S_4  and  N_7 
    3  A    between atoms: C_11  and  C_12 
    4  A    between atoms: C_12  and  O_13 
    5  A    between atoms: C_12  and  O_14 

>  <TORSDO>
F 5

$$$$
C:\Users\siddh\.mgltools\PyRx\Ligands\ZINC000019517337_uff_E=197.04.pdbqt
 OpenBabel04182118313D

 18 18  0  0  1  0  0  0  0  0999 V2000
    0.0180   -2.6700   -2.6400 C   0  0  0  0  0  0  0  0  0  0  0  0
   -0.0020   -1.8990   -3.5880 O   0  0  0  0  0  0  0  0  0  0  0  0
    0.0400   -4.0220   -2.8660 N   0  0  0  0  0  0  0  0  0  0  0  0
    0.1330   -5.0080   -1.8130 C   0  0  0  0  0  2  0  0  0  0  0  0
    0.6660   -6.2280   -2.5640 C   0  0  0  0  0  2  0  0  0  0  0  0
   -0.0610   -6.1210   -3.8900 C   0  0  0  0  0  2  0  0  0  0  0  0
    0.0450   -4.6190   -4.1910 C   0  0  1  0  0  3  0  0  0  0  0  0
    0.0120   -2.1210   -1.2200 C   0  0  0  0  0  2  0  0  0  0  0  0
    0.0230   -0.6650   -1.1620 N   0  0  0  0  0  0  0  0  0  0  0  0
   -0.0750   -0.0060    0.0240 C   0  0  0  0  0  0  0  0  0  0  0  0
   -0.0420    1.4940    0.0520 C   0  0  0  0  0  1  0  0  0  0  0  0
   -0.2020   -0.6240    1.0710 O   0  0  0  0  0  0  0  0  0  0  0  0
    0.1010   -0.1100   -2.0270 H   0  0  0  0  0  0  0  0  0  0  0  0
   -1.1150   -4.1740   -5.0470 C   0  0  0  0  0  3  0  0  0  0  0  0
   -2.3790   -4.3000   -4.5970 O   0  0  0  0  0  0  0  0  0  0  0  0
   -3.0960   -4.0230   -5.1320 H   0  0  0  0  0  0  0  0  0  0  0  0
   -0.8910   -3.6470   -6.2660 O   0  0  0  0  0  0  0  0  0  0  0  0
   -0.0140   -3.5570   -6.5840 H   0  0  0  0  0  0  0  0  0  0  0  0
  1  8  1  0  0  0  0
  2  1  2  0  0  0  0
  3  1  1  0  0  0  0
  3  4  1  0  0  0  0
  5  4  1  0  0  0  0
  6  5  1  0  0  0  0
  7 14  1  6  0  0  0
  7  6  1  0  0  0  0
  7  3  1  0  0  0  0
  8  9  1  0  0  0  0
  9 10  1  0  0  0  0
 10 11  1  0  0  0  0
 10 12  2  0  0  0  0
 13  9  1  0  0  0  0
 14 15  1  0  0  0  0
 16 15  1  0  0  0  0
 17 14  1  0  0  0  0
 18 17  1  0  0  0  0
M  END
>  <REMARK>
  5 active torsions:
  status: ('A' for Active; 'I' for Inactive)
       I    between atoms: C_2  and  N_4 
    1  A    between atoms: N_4  and  C_5 
    2  A    between atoms: C_5  and  C_6 
       I    between atoms: C_6  and  N_8 
    3  A    between atoms: C_12  and  C_13 
    4  A    between atoms: C_13  and  O_14 
    5  A    between atoms: C_13  and  O_15 

>  <TORSDO>
F 5

$$$$
C:\Users\siddh\.mgltools\PyRx\Ligands\ZINC000019517335_uff_E=203.54.pdbqt
 OpenBabel04182118313D

 18 18  0  0  1  0  0  0  0  0999 V2000
    0.0740   -2.6680   -2.6120 C   0  0  0  0  0  0  0  0  0  0  0  0
    0.0690   -1.8870   -3.5520 O   0  0  0  0  0  0  0  0  0  0  0  0
    0.0750   -4.0180   -2.8550 N   0  0  0  0  0  0  0  0  0  0  0  0
    0.0030   -5.0230   -1.8180 C   0  0  0  0  0  2  0  0  0  0  0  0
   -0.5710   -6.2200   -2.5740 C   0  0  0  0  0  2  0  0  0  0  0  0
    0.1090   -6.0970   -3.9250 C   0  0  0  0  0  2  0  0  0  0  0  0
    0.0320   -4.5870   -4.1930 C   0  0  2  0  0  3  0  0  0  0  0  0
    0.0500   -2.1280   -1.1900 C   0  0  0  0  0  2  0  0  0  0  0  0
    0.0720   -0.6710   -1.1340 N   0  0  0  0  0  0  0  0  0  0  0  0
   -0.0500   -0.0050    0.0460 C   0  0  0  0  0  0  0  0  0  0  0  0
   -0.0270    1.4950    0.0600 C   0  0  0  0  0  1  0  0  0  0  0  0
   -0.1950   -0.6170    1.0940 O   0  0  0  0  0  0  0  0  0  0  0  0
    0.1610   -0.1180   -1.9990 H   0  0  0  0  0  0  0  0  0  0  0  0
    1.1810   -4.1720   -5.0840 C   0  0  0  0  0  3  0  0  0  0  0  0
    1.2490   -4.6390   -6.3450 O   0  0  0  0  0  0  0  0  0  0  0  0
    1.9590   -4.3850   -6.9010 H   0  0  0  0  0  0  0  0  0  0  0  0
    2.1560   -3.3620   -4.6250 O   0  0  0  0  0  0  0  0  0  0  0  0
    2.1170   -3.0320   -3.7490 H   0  0  0  0  0  0  0  0  0  0  0  0
  1  8  1  0  0  0  0
  2  1  2  0  0  0  0
  3  1  1  0  0  0  0
  3  4  1  0  0  0  0
  5  4  1  0  0  0  0
  6  5  1  0  0  0  0
  7 14  1  6  0  0  0
  7  6  1  0  0  0  0
  7  3  1  0  0  0  0
  8  9  1  0  0  0  0
  9 10  1  0  0  0  0
 10 11  1  0  0  0  0
 10 12  2  0  0  0  0
 13  9  1  0  0  0  0
 14 17  1  0  0  0  0
 15 14  1  0  0  0  0
 16 15  1  0  0  0  0
 17 18  1  0  0  0  0
M  END
>  <REMARK>
  5 active torsions:
  status: ('A' for Active; 'I' for Inactive)
       I    between atoms: C_2  and  N_4 
    1  A    between atoms: N_4  and  C_5 
    2  A    between atoms: C_5  and  C_6 
       I    between atoms: C_6  and  N_8 
    3  A    between atoms: C_12  and  C_13 
    4  A    between atoms: C_13  and  O_14 
    5  A    between atoms: C_13  and  O_15 

>  <TORSDO>
F 5

$$$$
C:\Users\siddh\.mgltools\PyRx\Ligands\ZINC000019515289_uff_E=180.68.pdbqt
 OpenBabel04182118313D

 17 17  0  0  0  0  0  0  0  0999 V2000
   -1.3720   -0.4740    0.0080 N   0  0  0  0  0  0  0  0  0  0  0  0
   -2.0400   -0.7780    1.2710 C   0  0  0  0  0  2  0  0  0  0  0  0
   -3.5150   -0.3840    1.1820 C   0  0  0  0  0  2  0  0  0  0  0  0
   -4.1350   -1.0590    0.0440 N   0  0  0  0  0  0  0  0  0  0  0  0
   -3.4440   -1.1420   -1.1350 C   0  0  0  0  0  0  0  0  0  0  0  0
   -3.9790   -1.5670   -2.1500 O   0  0  0  0  0  0  0  0  0  0  0  0
   -2.0250   -0.7210   -1.1700 C   0  0  0  0  0  0  0  0  0  0  0  0
   -1.4550   -0.5920   -2.2460 O   0  0  0  0  0  0  0  0  0  0  0  0
   -5.5110   -1.5280    0.1390 C   0  0  0  0  0  2  0  0  0  0  0  0
   -6.4920   -0.4200   -0.2660 C   0  0  0  0  0  2  0  0  0  0  0  0
   -7.9240   -0.8790   -0.1940 C   0  0  0  0  0  3  0  0  0  0  0  0
   -8.2330   -2.1350    0.1860 O   0  0  0  0  0  0  0  0  0  0  0  0
   -9.1290   -2.4060    0.2260 H   0  0  0  0  0  0  0  0  0  0  0  0
   -8.9120   -0.0240   -0.5180 O   0  0  0  0  0  0  0  0  0  0  0  0
   -8.7070    0.8510   -0.7830 H   0  0  0  0  0  0  0  0  0  0  0  0
   -0.0020    0.0210    0.0180 C   0  0  0  0  0  2  0  0  0  0  0  0
   -0.0010    1.5430    0.0130 C   0  0  0  0  0  1  0  0  0  0  0  0
  1 16  1  0  0  0  0
  1  2  1  0  0  0  0
  3  2  1  0  0  0  0
  4  9  1  0  0  0  0
  4  3  1  0  0  0  0
  5  4  1  0  0  0  0
  6  5  2  0  0  0  0
  7  5  1  0  0  0  0
  7  1  1  0  0  0  0
  8  7  2  0  0  0  0
 10 11  1  0  0  0  0
 10  9  1  0  0  0  0
 11 12  1  0  0  0  0
 12 13  1  0  0  0  0
 14 11  1  0  0  0  0
 15 14  1  0  0  0  0
 17 16  1  0  0  0  0
M  END
>  <REMARK>
  6 active torsions:
  status: ('A' for Active; 'I' for Inactive)
    1  A    between atoms: C_2  and  N_3 
    2  A    between atoms: N_6  and  C_7 
    3  A    between atoms: C_7  and  C_8 
    4  A    between atoms: C_8  and  C_9 
    5  A    between atoms: C_9  and  O_10 
    6  A    between atoms: C_9  and  O_11 

>  <TORSDO>
F 6

$$$$
C:\Users\siddh\.mgltools\PyRx\Ligands\ZINC000019504858_uff_E=662.08.pdbqt
 OpenBabel04182118313D

 17 17  0  0  1  0  0  0  0  0999 V2000
    1.5040   -1.0760    0.1620 N   0  0  0  0  0  0  0  0  0  0  0  0
    2.1380   -1.4230   -1.1190 C   0  0  0  0  0  2  0  0  0  0  0  0
    3.0380   -0.2840   -1.6070 C   0  0  0  0  0  2  0  0  0  0  0  0
    4.0560    0.0750   -0.5220 C   0  0  0  0  0  2  0  0  0  0  0  0
    3.3100    0.5340    0.7330 C   0  0  0  0  0  2  0  0  0  0  0  0
    2.3850   -0.5830    1.2520 C   0  0  1  0  0  3  0  0  0  0  0  0
   -0.2750   -0.9680    0.1990 S   0  0  0  0  0  0  0  0  0  0  0  0
   -0.8010   -1.3900    1.5800 O   0  0  0  0  0  0  0  0  0  0  0  0
   -0.8600   -2.0060   -0.7710 O   0  0  0  0  0  0  0  0  0  0  0  0
   -0.8980    0.6260   -0.2330 N   0  0  0  0  0  0  0  0  0  0  0  0
   -0.1540    1.3300   -0.0270 H   0  0  0  0  0  0  0  0  0  0  0  0
   -1.7190    0.8290    0.3800 H   0  0  0  0  0  0  0  0  0  0  0  0
    1.6350   -0.0830    2.4630 C   0  0  0  0  0  3  0  0  0  0  0  0
    0.8310    0.9930    2.3760 O   0  0  0  0  0  0  0  0  0  0  0  0
    0.3700    1.2950    3.1340 H   0  0  0  0  0  0  0  0  0  0  0  0
    1.7990   -0.6930    3.6540 O   0  0  0  0  0  0  0  0  0  0  0  0
    2.3570   -1.4430    3.7240 H   0  0  0  0  0  0  0  0  0  0  0  0
  1  7  1  0  0  0  0
  1  6  1  0  0  0  0
  2  1  1  0  0  0  0
  3  2  1  0  0  0  0
  3  4  1  0  0  0  0
  4  5  1  0  0  0  0
  5  6  1  0  0  0  0
  6 13  1  1  0  0  0
  7  8  2  0  0  0  0
  9  7  2  0  0  0  0
 10 11  1  0  0  0  0
 10  7  1  0  0  0  0
 10 12  1  0  0  0  0
 13 16  1  0  0  0  0
 14 13  1  0  0  0  0
 14 15  1  0  0  0  0
 16 17  1  0  0  0  0
M  END
>  <REMARK>
  5 active torsions:
  status: ('A' for Active; 'I' for Inactive)
    1  A    between atoms: N_1  and  S_2 
    2  A    between atoms: S_2  and  N_5 
    3  A    between atoms: C_10  and  C_11 
    4  A    between atoms: C_11  and  O_12 
    5  A    between atoms: C_11  and  O_13 

>  <TORSDO>
F 5

$$$$
C:\Users\siddh\.mgltools\PyRx\Ligands\ZINC000019504857_uff_E=661.93.pdbqt
 OpenBabel04182118313D

 17 17  0  0  1  0  0  0  0  0999 V2000
    1.5940   -0.7850    0.0120 N   0  0  0  0  0  0  0  0  0  0  0  0
    2.3220   -1.1990   -1.1970 C   0  0  0  0  0  2  0  0  0  0  0  0
    3.2150   -2.4090   -0.9070 C   0  0  0  0  0  2  0  0  0  0  0  0
    4.1460   -2.1000    0.2680 C   0  0  0  0  0  2  0  0  0  0  0  0
    3.3030   -1.7940    1.5080 C   0  0  0  0  0  2  0  0  0  0  0  0
    2.3840   -0.5840    1.2540 C   0  0  2  0  0  3  0  0  0  0  0  0
   -0.1870   -0.8760   -0.0260 S   0  0  0  0  0  0  0  0  0  0  0  0
   -0.6740   -0.5640   -1.4500 O   0  0  0  0  0  0  0  0  0  0  0  0
   -0.7900    0.2400    0.8420 O   0  0  0  0  0  0  0  0  0  0  0  0
   -0.8290   -2.4460    0.4620 N   0  0  0  0  0  0  0  0  0  0  0  0
   -0.1200   -2.9090    1.0730 H   0  0  0  0  0  0  0  0  0  0  0  0
   -1.6900   -2.2800    1.0290 H   0  0  0  0  0  0  0  0  0  0  0  0
    1.5400   -0.3350    2.4800 C   0  0  0  0  0  3  0  0  0  0  0  0
    1.6460    0.8350    3.1420 O   0  0  0  0  0  0  0  0  0  0  0  0
    1.1230    0.9910    3.9030 H   0  0  0  0  0  0  0  0  0  0  0  0
    0.7070   -1.2850    2.9460 O   0  0  0  0  0  0  0  0  0  0  0  0
    0.6270   -2.1010    2.4920 H   0  0  0  0  0  0  0  0  0  0  0  0
  1  6  1  0  0  0  0
  2  3  1  0  0  0  0
  2  1  1  0  0  0  0
  3  4  1  0  0  0  0
  4  5  1  0  0  0  0
  6  5  1  0  0  0  0
  6 13  1  1  0  0  0
  7  1  1  0  0  0  0
  7 10  1  0  0  0  0
  7  9  2  0  0  0  0
  8  7  2  0  0  0  0
 10 12  1  0  0  0  0
 10 11  1  0  0  0  0
 13 16  1  0  0  0  0
 13 14  1  0  0  0  0
 14 15  1  0  0  0  0
 17 16  1  0  0  0  0
M  END
>  <REMARK>
  5 active torsions:
  status: ('A' for Active; 'I' for Inactive)
    1  A    between atoms: N_1  and  S_2 
    2  A    between atoms: S_2  and  N_5 
    3  A    between atoms: C_10  and  C_11 
    4  A    between atoms: C_11  and  O_12 
    5  A    between atoms: C_11  and  O_13 

>  <TORSDO>
F 5

$$$$
C:\Users\siddh\.mgltools\PyRx\Ligands\ZINC000019473778_uff_E=198.01.pdbqt
 OpenBabel04182118313D

 20 21  0  0  0  0  0  0  0  0999 V2000
   -0.0150    1.4930   -0.0220 C   0  0  0  0  0  1  0  0  0  0  0  0
   -0.0010    0.0240   -0.0000 N   0  0  0  0  0  0  0  0  0  0  0  0
    0.0050   -0.6950   -1.1810 C   0  0  0  0  0  0  0  0  0  0  0  0
   -0.0040   -0.1120   -2.2550 O   0  0  0  0  0  0  0  0  0  0  0  0
    0.0250   -2.0960   -1.1450 C   0  0  0  0  0  0  0  0  0  0  0  0
    0.0320   -2.8750   -2.3180 C   0  0  0  0  0  3  0  0  0  0  0  0
    0.0520   -4.2660   -2.2270 C   0  0  0  0  0  3  0  0  0  0  0  0
    0.0680   -4.8750   -0.9660 C   0  0  0  0  0  0  0  0  0  0  0  0
    0.0620   -4.1050    0.1520 N   0  0  0  0  0  0  0  0  0  0  0  0
    0.0750   -4.5630    1.0630 H   0  0  0  0  0  0  0  0  0  0  0  0
    0.0390   -2.7440    0.1040 C   0  0  0  0  0  0  0  0  0  0  0  0
    0.0330   -2.0140    1.2620 N   0  0  0  0  0  0  0  0  0  0  0  0
    0.0550   -2.6910    2.5690 C   0  0  0  0  0  1  0  0  0  0  0  0
    0.0240   -0.6350    1.2120 C   0  0  0  0  0  0  0  0  0  0  0  0
    0.0390    0.0080    2.2530 O   0  0  0  0  0  0  0  0  0  0  0  0
    0.0890   -6.3410   -0.8270 C   0  0  0  0  0  0  0  0  0  0  0  0
    0.0940   -7.1330   -1.9160 O   0  0  0  0  0  0  0  0  0  0  0  0
    0.1080   -8.0650   -1.8170 H   0  0  0  0  0  0  0  0  0  0  0  0
    0.1020   -6.8970    0.3990 O   0  0  0  0  0  0  0  0  0  0  0  0
    0.0980   -6.3520    1.1610 H   0  0  0  0  0  0  0  0  0  0  0  0
  1  2  1  0  0  0  0
  2 14  1  0  0  0  0
  3  5  1  0  0  0  0
  3  2  1  0  0  0  0
  4  3  2  0  0  0  0
  5 11  2  0  0  0  0
  6  7  2  0  0  0  0
  6  5  1  0  0  0  0
  7  8  1  0  0  0  0
  8 16  2  0  0  0  0
  8  9  1  0  0  0  0
  9 10  1  0  0  0  0
 11  9  1  0  0  0  0
 11 12  1  0  0  0  0
 12 13  1  0  0  0  0
 14 12  1  0  0  0  0
 14 15  2  0  0  0  0
 16 19  1  0  0  0  0
 17 18  1  0  0  0  0
 17 16  1  0  0  0  0
 19 20  1  0  0  0  0
M  END
>  <REMARK>
  3 active torsions:
  status: ('A' for Active; 'I' for Inactive)
    1  A    between atoms: C_8  and  C_9 
    2  A    between atoms: C_9  and  O_10 
    3  A    between atoms: C_9  and  O_11 

>  <TORSDO>
F 3

$$$$
C:\Users\siddh\.mgltools\PyRx\Ligands\ZINC000019428411_uff_E=410.70.pdbqt
 OpenBabel04182118313D

 20 21  0  0  1  0  0  0  0  0999 V2000
   -1.3060    1.9500   -0.0280 C   0  0  2  0  0  3  0  0  0  0  0  0
   -1.9900    1.8990   -1.4090 C   0  0  0  0  0  2  0  0  0  0  0  0
   -3.2500    2.7670   -1.4240 C   0  0  0  0  0  2  0  0  0  0  0  0
   -2.8870    4.2070   -1.0510 C   0  0  0  0  0  2  0  0  0  0  0  0
   -2.2480    4.2310    0.3430 C   0  0  0  0  0  2  0  0  0  0  0  0
   -1.0640    3.3620    0.3620 N   0  0  0  0  0  0  0  0  0  0  0  0
    0.1700    3.8510    0.7660 C   0  0  0  0  0  0  0  0  0  0  0  0
    1.1490    3.1220    0.7910 O   0  0  0  0  0  0  0  0  0  0  0  0
   -0.0990    1.0340   -0.0780 C   0  0  0  0  0  3  0  0  0  0  0  0
    0.0020    0.0040    0.7820 O   0  0  0  0  0  0  0  0  0  0  0  0
    0.1120   -0.0270    1.7120 H   0  0  0  0  0  0  0  0  0  0  0  0
    0.8650    1.2250   -1.0030 O   0  0  0  0  0  0  0  0  0  0  0  0
    0.8020    1.9400   -1.6060 H   0  0  0  0  0  0  0  0  0  0  0  0
    0.3610    5.2840    1.2340 C   0  0  0  0  0  2  0  0  0  0  0  0
    1.7520    5.5290    1.6210 N   0  0  0  0  0  0  0  0  0  0  0  0
    2.4070    4.8780    2.5660 N   0  0  0  0  0  0  0  0  0  0  0  0
    3.6440    5.3500    2.6240 N   0  0  0  0  0  0  0  0  0  0  0  0
    3.7940    6.3110    1.7220 N   0  0  0  0  0  0  0  0  0  0  0  0
    2.6060    6.4200    1.0990 C   0  0  0  0  0  2  0  0  0  0  0  0
    4.6370    6.8560    1.5380 H   0  0  0  0  0  0  0  0  0  0  0  0
  1  9  1  6  0  0  0
  1  6  1  0  0  0  0
  2  1  1  0  0  0  0
  3  2  1  0  0  0  0
  3  4  1  0  0  0  0
  4  5  1  0  0  0  0
  5  6  1  0  0  0  0
  6  7  1  0  0  0  0
  7  8  2  0  0  0  0
  7 14  1  0  0  0  0
  9 10  1  0  0  0  0
 10 11  1  0  0  0  0
 12  9  1  0  0  0  0
 13 12  1  0  0  0  0
 14 15  1  0  0  0  0
 15 16  1  0  0  0  0
 16 17  2  0  0  0  0
 18 17  1  0  0  0  0
 19 15  1  0  0  0  0
 19 18  1  0  0  0  0
 20 18  1  0  0  0  0
M  END
>  <REMARK>
  5 active torsions:
  status: ('A' for Active; 'I' for Inactive)
    1  A    between atoms: O_1  and  C_2 
    2  A    between atoms: C_2  and  O_3 
    3  A    between atoms: C_2  and  C_4 
       I    between atoms: N_9  and  C_10 
    4  A    between atoms: C_10  and  C_12 
    5  A    between atoms: C_12  and  N_13 

>  <TORSDO>
F 5

$$$$
C:\Users\siddh\.mgltools\PyRx\Ligands\ZINC000019428179_uff_E=580.48.pdbqt
 OpenBabel04182118313D

 15 15  0  0  1  0  0  0  0  0999 V2000
    0.0410   -0.2090    0.0090 O   0  0  0  0  0  0  0  0  0  0  0  0
    0.0980    1.1360    0.0180 C   0  0  0  0  0  3  0  0  0  0  0  0
   -0.0660   -1.1400   -0.0070 H   0  0  0  0  0  0  0  0  0  0  0  0
    1.2970    1.7500    0.0060 O   0  0  0  0  0  0  0  0  0  0  0  0
    1.3450    2.6860    0.0120 H   0  0  0  0  0  0  0  0  0  0  0  0
   -1.1490    1.9680    0.0390 C   0  0  0  0  0  2  0  0  0  0  0  0
   -2.6980    1.0060    0.0430 S   0  0  0  0  0  0  0  0  0  0  0  0
   -2.6690    0.0200   -1.1360 O   0  0  0  0  0  0  0  0  0  0  0  0
   -2.6880    0.0270    1.2270 O   0  0  0  0  0  0  0  0  0  0  0  0
   -4.2770    1.9070    0.0190 C   0  0  0  0  0  2  0  0  0  0  0  0
   -5.5150    1.0060    0.0080 C   0  0  2  0  0  3  0  0  0  0  0  0
   -5.5430    0.1410   -1.1150 O   0  0  0  0  0  0  0  0  0  0  0  0
   -6.8700    0.1810   -1.6120 C   0  0  0  0  0  2  0  0  0  0  0  0
   -7.7360    0.8240   -0.5430 C   0  0  0  0  0  2  0  0  0  0  0  0
   -6.7780    1.8580   -0.0600 C   0  0  0  0  0  2  0  0  0  0  0  0
  1  2  1  0  0  0  0
  2  6  1  0  0  0  0
  3  1  1  0  0  0  0
  4  5  1  0  0  0  0
  4  2  1  0  0  0  0
  6  7  1  0  0  0  0
  7  9  2  0  0  0  0
  8  7  2  0  0  0  0
 10  7  1  0  0  0  0
 11 10  1  6  0  0  0
 12 11  1  0  0  0  0
 13 12  1  0  0  0  0
 13 14  1  0  0  0  0
 14 15  1  0  0  0  0
 15 11  1  0  0  0  0
M  END
>  <REMARK>
  5 active torsions:
  status: ('A' for Active; 'I' for Inactive)
    1  A    between atoms: C_2  and  O_3 
    2  A    between atoms: C_2  and  C_4 
    3  A    between atoms: C_4  and  S_5 
    4  A    between atoms: S_5  and  C_8 
    5  A    between atoms: C_8  and  C_9 

>  <TORSDO>
F 5

$$$$
C:\Users\siddh\.mgltools\PyRx\Ligands\ZINC000019425591_uff_E=467.24.pdbqt
 OpenBabel04182118313D

 20 20  0  0  0  0  0  0  0  0999 V2000
   -2.5720   -3.3760    0.0090 C   0  0  0  0  0  0  0  0  0  0  0  0
   -3.1870   -3.6870    1.2240 C   0  0  0  0  0  3  0  0  0  0  0  0
   -4.4390   -4.3030    1.2350 C   0  0  0  0  0  3  0  0  0  0  0  0
   -5.0890   -4.6090    0.0260 C   0  0  0  0  0  0  0  0  0  0  0  0
   -4.4580   -4.2980   -1.1920 C   0  0  0  0  0  3  0  0  0  0  0  0
   -3.2060   -3.6830   -1.1980 C   0  0  0  0  0  3  0  0  0  0  0  0
   -1.0340   -2.4820   -0.0010 S   0  0  0  0  0  0  0  0  0  0  0  0
   -0.1860   -2.9410   -1.1990 O   0  0  0  0  0  0  0  0  0  0  0  0
   -0.1640   -2.9540    1.1750 O   0  0  0  0  0  0  0  0  0  0  0  0
   -1.2010   -0.6750    0.0090 C   0  0  0  0  0  2  0  0  0  0  0  0
    0.0950    0.0780    0.0010 C   0  0  0  0  0  0  0  0  0  0  0  0
    0.0700    1.4300    0.0080 N   0  0  0  0  0  0  0  0  0  0  0  0
    0.9480    1.9690    0.0030 H   0  0  0  0  0  0  0  0  0  0  0  0
   -0.8290    1.9340    0.0190 H   0  0  0  0  0  0  0  0  0  0  0  0
    1.1630   -0.5120   -0.0110 O   0  0  0  0  0  0  0  0  0  0  0  0
   -6.4300   -5.2350    0.0350 C   0  0  0  0  0  3  0  0  0  0  0  0
   -7.0410   -5.5190    1.2020 O   0  0  0  0  0  0  0  0  0  0  0  0
   -7.8900   -5.9150    1.2020 H   0  0  0  0  0  0  0  0  0  0  0  0
   -7.0590   -5.5150   -1.1230 O   0  0  0  0  0  0  0  0  0  0  0  0
   -6.6430   -5.3220   -1.9400 H   0  0  0  0  0  0  0  0  0  0  0  0
  1  2  1  0  0  0  0
  2  3  2  0  0  0  0
  4 16  1  0  0  0  0
  4  3  1  0  0  0  0
  5  4  2  0  0  0  0
  6  5  1  0  0  0  0
  6  1  2  0  0  0  0
  7  1  1  0  0  0  0
  7 10  1  0  0  0  0
  7  9  2  0  0  0  0
  8  7  2  0  0  0  0
 11 12  1  0  0  0  0
 11 10  1  0  0  0  0
 12 14  1  0  0  0  0
 13 12  1  0  0  0  0
 15 11  2  0  0  0  0
 16 17  1  0  0  0  0
 17 18  1  0  0  0  0
 19 16  1  0  0  0  0
 20 19  1  0  0  0  0
M  END
>  <REMARK>
  6 active torsions:
  status: ('A' for Active; 'I' for Inactive)
       I    between atoms: N_1  and  C_2 
    1  A    between atoms: C_2  and  C_4 
    2  A    between atoms: C_4  and  S_5 
    3  A    between atoms: S_5  and  C_8 
    4  A    between atoms: C_11  and  C_12 
    5  A    between atoms: C_12  and  O_13 
    6  A    between atoms: C_12  and  O_14 

>  <TORSDO>
F 6

$$$$
C:\Users\siddh\.mgltools\PyRx\Ligands\ZINC000019366022_uff_E=143.14.pdbqt
 OpenBabel04182118313D

 21 21  0  0  0  0  0  0  0  0999 V2000
    0.1260   -0.2180   -0.0540 O   0  0  0  0  0  0  0  0  0  0  0  0
    0.1140    1.1290   -0.0780 C   0  0  0  0  0  3  0  0  0  0  0  0
    0.1480   -1.1540   -0.0100 H   0  0  0  0  0  0  0  0  0  0  0  0
    1.2800    1.8010   -0.1400 O   0  0  0  0  0  0  0  0  0  0  0  0
    1.2800    2.7380   -0.1570 H   0  0  0  0  0  0  0  0  0  0  0  0
   -1.1770    1.8980   -0.0230 C   0  0  0  0  0  2  0  0  0  0  0  0
   -2.4150    0.9850    0.0810 C   0  0  0  0  0  2  0  0  0  0  0  0
   -3.7010    1.7250    0.0460 N   0  0  0  0  0  0  0  0  0  0  0  0
   -4.8090    0.7640    0.2330 C   0  0  0  0  0  2  0  0  0  0  0  0
   -6.1680    1.4760    0.1770 C   0  0  0  0  0  2  0  0  0  0  0  0
   -6.2460    2.5360    1.2080 N   0  0  0  0  0  4  0  0  0  0  0  0
   -5.1400    3.4940    0.9960 C   0  0  0  0  0  2  0  0  0  0  0  0
   -6.1360    2.1110    2.1600 H   0  0  0  0  0  0  0  0  0  0  0  0
   -3.7840    2.7850    1.0700 C   0  0  0  0  0  2  0  0  0  0  0  0
   -7.5360    3.2680    1.1640 C   0  0  0  0  0  2  0  0  0  0  0  0
   -8.7360    2.3980    1.5900 C   0  0  0  0  0  2  0  0  0  0  0  0
  -10.0300    3.1650    1.5950 C   0  0  0  0  0  3  0  0  0  0  0  0
  -10.0720    4.4650    1.2440 O   0  0  0  0  0  0  0  0  0  0  0  0
  -10.8880    4.9260    1.2530 H   0  0  0  0  0  0  0  0  0  0  0  0
  -11.1680    2.5380    1.9510 O   0  0  0  0  0  0  0  0  0  0  0  0
  -11.1480    1.6340    2.1960 H   0  0  0  0  0  0  0  0  0  0  0  0
  1  3  1  0  0  0  0
  2  1  1  0  0  0  0
  2  6  1  0  0  0  0
  4  2  1  0  0  0  0
  5  4  1  0  0  0  0
  6  7  1  0  0  0  0
  8  7  1  0  0  0  0
  8  9  1  0  0  0  0
  8 14  1  0  0  0  0
 10  9  1  0  0  0  0
 10 11  1  0  0  0  0
 11 13  1  0  0  0  0
 12 14  1  0  0  0  0
 12 11  1  0  0  0  0
 15 11  1  0  0  0  0
 15 16  1  0  0  0  0
 16 17  1  0  0  0  0
 17 20  1  0  0  0  0
 18 19  1  0  0  0  0
 18 17  1  0  0  0  0
 20 21  1  0  0  0  0
M  END
>  <REMARK>
  9 active torsions:
  status: ('A' for Active; 'I' for Inactive)
    1  A    between atoms: C_2  and  O_3 
    2  A    between atoms: C_2  and  C_4 
    3  A    between atoms: C_4  and  C_5 
    4  A    between atoms: C_5  and  N_6 
    5  A    between atoms: N_9  and  C_11 
    6  A    between atoms: C_11  and  C_12 
    7  A    between atoms: C_12  and  C_13 
    8  A    between atoms: C_13  and  O_14 
    9  A    between atoms: C_13  and  O_15 

>  <TORSDO>
F 9

$$$$
C:\Users\siddh\.mgltools\PyRx\Ligands\ZINC000019280333_uff_E=781.24.pdbqt
 OpenBabel04182118313D

 18 19  0  0  1  0  0  0  0  0999 V2000
   -1.3200    2.0290   -0.0000 C   0  0  1  0  0  3  0  0  0  0  0  0
   -2.4440    1.2130    0.6870 C   0  0  0  0  0  2  0  0  0  0  0  0
   -2.2580    1.6710    2.0900 C   0  0  0  0  0  0  0  0  0  0  0  0
   -2.7790    1.1270    3.0490 O   0  0  0  0  0  0  0  0  0  0  0  0
   -1.5810    2.8360    2.1690 N   0  0  0  0  0  0  0  0  0  0  0  0
   -1.2120    3.3100    0.8640 C   0  0  0  0  0  2  0  0  0  0  0  0
   -1.3700    3.6170    3.3850 C   0  0  2  0  0  3  0  0  0  0  0  0
   -0.5310    2.8530    4.4310 C   0  0  0  0  0  2  0  0  0  0  0  0
   -0.9580    3.7460    5.9270 S   0  0  0  0  0  0  0  0  0  0  0  0
   -2.2990    4.7890    5.3590 C   0  0  0  0  0  2  0  0  0  0  0  0
    0.2160    4.5330    6.5280 O   0  0  0  0  0  0  0  0  0  0  0  0
   -1.4120    2.7940    7.0440 O   0  0  0  0  0  0  0  0  0  0  0  0
   -2.6930    4.0600    4.0670 C   0  0  0  0  0  2  0  0  0  0  0  0
    0.0080    1.2850    0.0680 C   0  0  0  0  0  3  0  0  0  0  0  0
    0.0840    0.0250    0.5430 O   0  0  0  0  0  0  0  0  0  0  0  0
    0.2010   -0.5440    1.2780 H   0  0  0  0  0  0  0  0  0  0  0  0
    1.1290    1.8830   -0.3810 O   0  0  0  0  0  0  0  0  0  0  0  0
    1.0920    2.7580   -0.7140 H   0  0  0  0  0  0  0  0  0  0  0  0
  1 14  1  1  0  0  0
  1  2  1  0  0  0  0
  1  6  1  0  0  0  0
  2  3  1  0  0  0  0
  3  5  1  0  0  0  0
  3  4  2  0  0  0  0
  6  5  1  0  0  0  0
  7  5  1  6  0  0  0
  7 13  1  0  0  0  0
  7  8  1  0  0  0  0
  8  9  1  0  0  0  0
  9 11  2  0  0  0  0
  9 12  2  0  0  0  0
 10  9  1  0  0  0  0
 13 10  1  0  0  0  0
 14 15  1  0  0  0  0
 15 16  1  0  0  0  0
 17 14  1  0  0  0  0
 18 17  1  0  0  0  0
M  END
>  <REMARK>
  4 active torsions:
  status: ('A' for Active; 'I' for Inactive)
    1  A    between atoms: O_1  and  C_2 
    2  A    between atoms: C_2  and  O_3 
    3  A    between atoms: C_2  and  C_4 
    4  A    between atoms: N_8  and  C_9 

>  <TORSDO>
F 4

$$$$
C:\Users\siddh\.mgltools\PyRx\Ligands\ZINC000019280331_uff_E=761.92.pdbqt
 OpenBabel04182118313D

 18 19  0  0  1  0  0  0  0  0999 V2000
   -1.2530    2.0210   -0.0170 C   0  0  2  0  0  3  0  0  0  0  0  0
   -1.5550    2.5390   -1.4330 C   0  0  0  0  0  2  0  0  0  0  0  0
   -2.3010    3.7730   -1.0930 C   0  0  0  0  0  0  0  0  0  0  0  0
   -2.9060    4.4330   -1.9220 O   0  0  0  0  0  0  0  0  0  0  0  0
   -2.1320    4.1610    0.1890 N   0  0  0  0  0  0  0  0  0  0  0  0
   -1.2640    3.2610    0.9020 C   0  0  0  0  0  2  0  0  0  0  0  0
   -2.6320    5.4090    0.7640 C   0  0  1  0  0  3  0  0  0  0  0  0
   -2.0460    6.6540    0.0630 C   0  0  0  0  0  2  0  0  0  0  0  0
   -3.2050    7.9080    0.5980 S   0  0  0  0  0  0  0  0  0  0  0  0
   -4.5680    6.9140    1.2110 C   0  0  0  0  0  2  0  0  0  0  0  0
   -3.6180    8.8590   -0.5360 O   0  0  0  0  0  0  0  0  0  0  0  0
   -2.6170    8.8180    1.6870 O   0  0  0  0  0  0  0  0  0  0  0  0
   -4.1800    5.5200    0.6960 C   0  0  0  0  0  2  0  0  0  0  0  0
   -0.0220    1.1680    0.0690 C   0  0  0  0  0  3  0  0  0  0  0  0
   -0.1150   -0.1250    0.4320 O   0  0  0  0  0  0  0  0  0  0  0  0
   -0.2720   -0.8210    1.0390 H   0  0  0  0  0  0  0  0  0  0  0  0
    1.1820    1.6910   -0.2360 O   0  0  0  0  0  0  0  0  0  0  0  0
    1.2520    2.5900   -0.4900 H   0  0  0  0  0  0  0  0  0  0  0  0
  1 14  1  6  0  0  0
  1  6  1  0  0  0  0
  2  3  1  0  0  0  0
  2  1  1  0  0  0  0
  3  5  1  0  0  0  0
  4  3  2  0  0  0  0
  5  7  1  0  0  0  0
  5  6  1  0  0  0  0
  7  8  1  6  0  0  0
  8  9  1  0  0  0  0
  9 10  1  0  0  0  0
  9 12  2  0  0  0  0
 11  9  2  0  0  0  0
 13  7  1  0  0  0  0
 13 10  1  0  0  0  0
 14 15  1  0  0  0  0
 15 16  1  0  0  0  0
 17 14  1  0  0  0  0
 18 17  1  0  0  0  0
M  END
>  <REMARK>
  4 active torsions:
  status: ('A' for Active; 'I' for Inactive)
    1  A    between atoms: O_1  and  C_2 
    2  A    between atoms: C_2  and  O_3 
    3  A    between atoms: C_2  and  C_4 
    4  A    between atoms: N_8  and  C_9 

>  <TORSDO>
F 4

$$$$
C:\Users\siddh\.mgltools\PyRx\Ligands\ZINC000019229980_uff_E=596.62.pdbqt
 OpenBabel04182118313D

 19 20  0  0  0  0  0  0  0  0999 V2000
   -0.0370   -0.1690    0.0070 O   0  0  0  0  0  0  0  0  0  0  0  0
   -0.0040    1.1780   -0.0020 C   0  0  0  0  0  3  0  0  0  0  0  0
   -0.1000   -1.1030    0.0250 H   0  0  0  0  0  0  0  0  0  0  0  0
    1.1910    1.8010   -0.0060 O   0  0  0  0  0  0  0  0  0  0  0  0
    1.2310    2.7370   -0.0130 H   0  0  0  0  0  0  0  0  0  0  0  0
   -1.2800    1.9430    0.0020 C   0  0  0  0  0  0  0  0  0  0  0  0
   -1.3220    3.3600   -0.0050 C   0  0  0  0  0  0  0  0  0  0  0  0
   -2.5580    4.0060    0.0250 N   0  0  0  0  0  0  0  0  0  0  0  0
   -0.2060    4.0120   -0.0130 N   0  0  0  0  0  0  0  0  0  0  0  0
   -3.7030    3.2560    0.0520 C   0  0  0  0  0  3  0  0  0  0  0  0
   -2.7260    5.4820   -0.0430 C   0  0  0  0  0  2  0  0  0  0  0  0
   -3.6430    1.8680    0.0510 C   0  0  0  0  0  3  0  0  0  0  0  0
   -2.4430    1.2460    0.0280 N   0  0  0  0  0  0  0  0  0  0  0  0
   -2.4120    0.2260    0.0300 H   0  0  0  0  0  0  0  0  0  0  0  0
   -1.6980    6.2510    0.7670 C   0  0  0  0  0  2  0  0  0  0  0  0
   -0.1290    5.7420    0.0910 S   0  0  0  0  0  0  0  0  0  0  0  0
    0.2030    6.1770   -1.3450 O   0  0  0  0  0  0  0  0  0  0  0  0
    1.1380    6.0150    0.9130 O   0  0  0  0  0  0  0  0  0  0  0  0
    0.6650    3.4870   -0.0850 H   0  0  0  0  0  0  0  0  0  0  0  0
  1  3  1  0  0  0  0
  2  6  1  0  0  0  0
  2  1  1  0  0  0  0
  4  2  1  0  0  0  0
  5  4  1  0  0  0  0
  6 13  1  0  0  0  0
  7  6  2  0  0  0  0
  7  8  1  0  0  0  0
  8 10  1  0  0  0  0
  9  7  1  0  0  0  0
  9 16  1  0  0  0  0
 11  8  1  0  0  0  0
 11 15  1  0  0  0  0
 12 10  2  0  0  0  0
 13 14  1  0  0  0  0
 13 12  1  0  0  0  0
 16 15  1  0  0  0  0
 16 18  2  0  0  0  0
 17 16  2  0  0  0  0
 19  9  1  0  0  0  0
M  END
>  <REMARK>
  2 active torsions:
  status: ('A' for Active; 'I' for Inactive)
    1  A    between atoms: C_2  and  O_3 
    2  A    between atoms: C_2  and  C_4 

>  <TORSDO>
F 2

$$$$
C:\Users\siddh\.mgltools\PyRx\Ligands\ZINC000019092477_uff_E=158.93.pdbqt
 OpenBabel04182118313D

 16 16  0  0  1  0  0  0  0  0999 V2000
    0.5780   -2.0380   -1.0350 C   0  0  0  0  0  0  0  0  0  0  0  0
    0.0340   -2.5800   -0.0830 O   0  0  0  0  0  0  0  0  0  0  0  0
    1.1700   -2.8010   -2.0180 N   0  0  0  0  0  0  0  0  0  0  0  0
    1.8440   -2.2060   -3.1710 C   0  0  0  0  0  2  0  0  0  0  0  0
    1.2280   -2.7570   -4.4580 C   0  0  0  0  0  2  0  0  0  0  0  0
    1.3080   -4.2870   -4.4540 C   0  0  0  0  0  2  0  0  0  0  0  0
    0.5550   -4.8550   -3.2320 C   0  0  2  0  0  3  0  0  0  0  0  0
    1.1610   -4.2640   -1.9410 C   0  0  0  0  0  2  0  0  0  0  0  0
    0.6020   -0.5270   -1.0820 C   0  0  0  0  0  2  0  0  0  0  0  0
   -0.0400    0.0030    0.0590 O   0  0  0  0  0  0  0  0  0  0  0  0
   -0.0110    1.4100   -0.0040 C   0  0  0  0  0  1  0  0  0  0  0  0
    0.6120   -6.3670   -3.2210 C   0  0  0  0  0  3  0  0  0  0  0  0
    0.5070   -7.0440   -2.0600 O   0  0  0  0  0  0  0  0  0  0  0  0
    0.5430   -7.9810   -2.0590 H   0  0  0  0  0  0  0  0  0  0  0  0
    0.7080   -7.0550   -4.3760 O   0  0  0  0  0  0  0  0  0  0  0  0
    0.7810   -6.5950   -5.1900 H   0  0  0  0  0  0  0  0  0  0  0  0
  1  2  2  0  0  0  0
  3  8  1  0  0  0  0
  3  1  1  0  0  0  0
  4  3  1  0  0  0  0
  5  6  1  0  0  0  0
  5  4  1  0  0  0  0
  6  7  1  0  0  0  0
  7 12  1  1  0  0  0
  7  8  1  0  0  0  0
  9  1  1  0  0  0  0
  9 10  1  0  0  0  0
 11 10  1  0  0  0  0
 12 13  1  0  0  0  0
 13 14  1  0  0  0  0
 15 12  1  0  0  0  0
 16 15  1  0  0  0  0
M  END
>  <REMARK>
  5 active torsions:
  status: ('A' for Active; 'I' for Inactive)
    1  A    between atoms: O_2  and  C_3 
    2  A    between atoms: C_3  and  C_4 
       I    between atoms: C_4  and  N_6 
    3  A    between atoms: C_10  and  C_11 
    4  A    between atoms: C_11  and  O_12 
    5  A    between atoms: C_11  and  O_13 

>  <TORSDO>
F 5

$$$$
C:\Users\siddh\.mgltools\PyRx\Ligands\ZINC000019090411_uff_E=177.69.pdbqt
 OpenBabel04182118313D

 16 16  0  0  1  0  0  0  0  0999 V2000
   -0.5390   -2.5290    1.2340 N   0  0  0  0  0  0  0  0  0  0  0  0
    0.9210   -2.6570    1.2970 C   0  0  0  0  0  2  0  0  0  0  0  0
    1.4630   -2.7040    2.7390 C   0  0  1  0  0  3  0  0  0  0  0  0
    0.6900   -3.7580    3.5080 C   0  0  0  0  0  2  0  0  0  0  0  0
   -0.7680   -3.3110    3.6260 C   0  0  0  0  0  2  0  0  0  0  0  0
   -1.3360   -2.8010    2.3230 C   0  0  0  0  0  0  0  0  0  0  0  0
   -2.5450   -2.6110    2.2600 O   0  0  0  0  0  0  0  0  0  0  0  0
    2.9410   -2.9920    2.7410 C   0  0  0  0  0  3  0  0  0  0  0  0
    3.7920   -2.1350    3.3360 O   0  0  0  0  0  0  0  0  0  0  0  0
    4.7120   -2.3130    3.3380 H   0  0  0  0  0  0  0  0  0  0  0  0
    3.4200   -4.1060    2.1540 O   0  0  0  0  0  0  0  0  0  0  0  0
    2.8320   -4.7060    1.7380 H   0  0  0  0  0  0  0  0  0  0  0  0
   -1.1410   -2.0890   -0.0200 C   0  0  0  0  0  2  0  0  0  0  0  0
   -1.2730   -0.5630   -0.0440 C   0  0  0  0  0  2  0  0  0  0  0  0
    0.0160    0.0110   -0.0130 O   0  0  0  0  0  0  0  0  0  0  0  0
   -0.0830    1.4130    0.0080 C   0  0  0  0  0  1  0  0  0  0  0  0
  1  2  1  0  0  0  0
  1  6  1  0  0  0  0
  2  3  1  0  0  0  0
  3  8  1  6  0  0  0
  3  4  1  0  0  0  0
  4  5  1  0  0  0  0
  6  5  1  0  0  0  0
  7  6  2  0  0  0  0
  8  9  1  0  0  0  0
  9 10  1  0  0  0  0
 11  8  1  0  0  0  0
 12 11  1  0  0  0  0
 13  1  1  0  0  0  0
 14 13  1  0  0  0  0
 14 15  1  0  0  0  0
 15 16  1  0  0  0  0
M  END
>  <REMARK>
  6 active torsions:
  status: ('A' for Active; 'I' for Inactive)
    1  A    between atoms: O_2  and  C_3 
    2  A    between atoms: C_3  and  C_4 
    3  A    between atoms: C_4  and  N_5 
    4  A    between atoms: C_7  and  C_8 
    5  A    between atoms: C_8  and  O_9 
    6  A    between atoms: C_8  and  O_10 

>  <TORSDO>
F 6

$$$$
C:\Users\siddh\.mgltools\PyRx\Ligands\ZINC000019090408_uff_E=183.31.pdbqt
 OpenBabel04182118313D

 16 16  0  0  1  0  0  0  0  0999 V2000
   -0.5570   -2.5850    1.2110 N   0  0  0  0  0  0  0  0  0  0  0  0
    0.9030   -2.7190    1.2640 C   0  0  0  0  0  2  0  0  0  0  0  0
    1.4170   -3.5440    2.4670 C   0  0  2  0  0  3  0  0  0  0  0  0
    0.7270   -3.0350    3.7220 C   0  0  0  0  0  2  0  0  0  0  0  0
   -0.7700   -3.3330    3.6130 C   0  0  0  0  0  2  0  0  0  0  0  0
   -1.3520   -2.9140    2.2850 C   0  0  0  0  0  0  0  0  0  0  0  0
   -2.5720   -2.8750    2.1810 O   0  0  0  0  0  0  0  0  0  0  0  0
    2.9230   -3.4660    2.5910 C   0  0  0  0  0  3  0  0  0  0  0  0
    3.5410   -4.0650    3.6270 O   0  0  0  0  0  0  0  0  0  0  0  0
    4.4740   -4.0190    3.7060 H   0  0  0  0  0  0  0  0  0  0  0  0
    3.6630   -2.8220    1.6650 O   0  0  0  0  0  0  0  0  0  0  0  0
    3.2440   -2.4020    0.9400 H   0  0  0  0  0  0  0  0  0  0  0  0
   -1.1580   -2.0790   -0.0220 C   0  0  0  0  0  2  0  0  0  0  0  0
   -1.2550   -0.5500   -0.0180 C   0  0  0  0  0  2  0  0  0  0  0  0
    0.0390    0.0120    0.0220 O   0  0  0  0  0  0  0  0  0  0  0  0
   -0.0610    1.4180    0.0220 C   0  0  0  0  0  1  0  0  0  0  0  0
  1  2  1  0  0  0  0
  1  6  1  0  0  0  0
  2  3  1  0  0  0  0
  3  8  1  1  0  0  0
  3  4  1  0  0  0  0
  5  4  1  0  0  0  0
  6  5  1  0  0  0  0
  7  6  2  0  0  0  0
  8  9  1  0  0  0  0
  9 10  1  0  0  0  0
 11  8  1  0  0  0  0
 12 11  1  0  0  0  0
 13 14  1  0  0  0  0
 13  1  1  0  0  0  0
 14 15  1  0  0  0  0
 15 16  1  0  0  0  0
M  END
>  <REMARK>
  6 active torsions:
  status: ('A' for Active; 'I' for Inactive)
    1  A    between atoms: O_2  and  C_3 
    2  A    between atoms: C_3  and  C_4 
    3  A    between atoms: C_4  and  N_5 
    4  A    between atoms: C_7  and  C_8 
    5  A    between atoms: C_8  and  O_9 
    6  A    between atoms: C_8  and  O_10 

>  <TORSDO>
F 6

$$$$
C:\Users\siddh\.mgltools\PyRx\Ligands\ZINC000018152563_uff_E=86.07.pdbqt
 OpenBabel04182118313D

 19 19  0  0  1  0  0  0  0  0999 V2000
    2.1950   -6.0050   -3.7710 C   0  0  2  0  0  3  0  0  0  0  0  0
    1.6530   -6.7920   -2.8030 N   0  0  0  0  0  0  0  0  0  0  0  0
    1.1940   -6.3550   -2.0040 H   0  0  0  0  0  0  0  0  0  0  0  0
    1.7080   -8.1220   -2.8760 N   0  0  0  0  0  0  0  0  0  0  0  0
    2.3180   -8.7370   -3.9390 C   0  0  0  0  0  0  0  0  0  0  0  0
    2.3660   -9.9520   -4.0000 O   0  0  0  0  0  0  0  0  0  0  0  0
    2.8750   -7.9800   -4.9310 N   0  0  0  0  0  0  0  0  0  0  0  0
    2.8230   -6.6160   -4.8650 C   0  0  0  0  0  0  0  0  0  0  0  0
    3.3220   -5.9480   -5.7540 O   0  0  0  0  0  0  0  0  0  0  0  0
    1.2800   -8.6920   -2.1140 H   0  0  0  0  0  0  0  0  0  0  0  0
    3.3140   -8.4190   -5.6960 H   0  0  0  0  0  0  0  0  0  0  0  0
    2.1220   -4.5050   -3.6680 C   0  0  0  0  0  2  0  0  0  0  0  0
    1.4010   -4.0040   -2.4030 C   0  0  0  0  0  2  0  0  0  0  0  0
    1.3600   -2.4990   -2.3570 C   0  0  0  0  0  0  0  0  0  0  0  0
    1.8650   -1.8440   -3.2620 O   0  0  0  0  0  0  0  0  0  0  0  0
    0.7640   -1.8680   -1.3120 O   0  0  0  0  0  0  0  0  0  0  0  0
    0.7140   -0.4890   -1.2490 C   0  0  0  0  0  2  0  0  0  0  0  0
   -0.0020   -0.0120    0.0090 C   0  0  0  0  0  2  0  0  0  0  0  0
   -0.0320    1.5150    0.0340 C   0  0  0  0  0  1  0  0  0  0  0  0
  1 12  1  1  0  0  0
  1  2  1  0  0  0  0
  2  3  1  0  0  0  0
  4  2  1  0  0  0  0
  4 10  1  0  0  0  0
  5  4  1  0  0  0  0
  6  5  2  0  0  0  0
  7  8  1  0  0  0  0
  7  5  1  0  0  0  0
  8  1  1  0  0  0  0
  9  8  2  0  0  0  0
 11  7  1  0  0  0  0
 12 13  1  0  0  0  0
 13 14  1  0  0  0  0
 14 16  1  0  0  0  0
 15 14  2  0  0  0  0
 16 17  1  0  0  0  0
 17 18  1  0  0  0  0
 18 19  1  0  0  0  0
M  END
>  <REMARK>
  6 active torsions:
  status: ('A' for Active; 'I' for Inactive)
    1  A    between atoms: C_2  and  C_3 
    2  A    between atoms: C_3  and  O_4 
    3  A    between atoms: O_4  and  C_5 
    4  A    between atoms: C_5  and  C_7 
    5  A    between atoms: C_7  and  C_8 
    6  A    between atoms: C_8  and  C_9 

>  <TORSDO>
F 6

$$$$
C:\Users\siddh\.mgltools\PyRx\Ligands\ZINC000018100819_uff_E=108.70.pdbqt
 OpenBabel04182118313D

 17 17  0  0  1  0  0  0  0  0999 V2000
    1.4460   -4.3590   -2.4770 C   0  0  2  0  0  3  0  0  0  0  0  0
    0.8340   -4.9080   -1.3930 N   0  0  0  0  0  0  0  0  0  0  0  0
    0.4240   -4.2980   -0.6850 H   0  0  0  0  0  0  0  0  0  0  0  0
    0.7610   -6.2550   -1.2380 C   0  0  0  0  0  0  0  0  0  0  0  0
    1.3180   -7.0980   -2.1990 C   0  0  0  0  0  3  0  0  0  0  0  0
    1.9420   -6.5260   -3.3060 C   0  0  0  0  0  0  0  0  0  0  0  0
    2.4390   -7.2360   -4.1630 O   0  0  0  0  0  0  0  0  0  0  0  0
    1.9970   -5.1620   -3.4270 N   0  0  0  0  0  0  0  0  0  0  0  0
    2.4650   -4.7320   -4.2570 H   0  0  0  0  0  0  0  0  0  0  0  0
    1.5460   -2.5780   -2.6870 S   0  0  0  0  0  0  0  0  0  0  0  0
    0.6800   -2.0490   -1.1610 C   0  0  0  0  0  2  0  0  0  0  0  0
    0.6300   -0.5460   -1.0990 C   0  0  0  0  0  0  0  0  0  0  0  0
    1.1280    0.1250   -1.9950 O   0  0  0  0  0  0  0  0  0  0  0  0
    0.0290    0.0650   -0.0470 O   0  0  0  0  0  0  0  0  0  0  0  0
   -0.0440    1.4390    0.0560 C   0  0  0  0  0  1  0  0  0  0  0  0
    0.1510   -6.7730   -0.1590 O   0  0  0  0  0  0  0  0  0  0  0  0
   -0.2220   -6.2050    0.4860 H   0  0  0  0  0  0  0  0  0  0  0  0
  1 10  1  1  0  0  0
  1  2  1  0  0  0  0
  2  4  1  0  0  0  0
  2  3  1  0  0  0  0
  4 16  1  0  0  0  0
  5  4  2  0  0  0  0
  6  5  1  0  0  0  0
  7  6  2  0  0  0  0
  8  6  1  0  0  0  0
  8  1  1  0  0  0  0
  9  8  1  0  0  0  0
 10 11  1  0  0  0  0
 11 12  1  0  0  0  0
 12 14  1  0  0  0  0
 13 12  2  0  0  0  0
 14 15  1  0  0  0  0
 16 17  1  0  0  0  0
M  END
>  <REMARK>
  5 active torsions:
  status: ('A' for Active; 'I' for Inactive)
    1  A    between atoms: O_2  and  C_3 
    2  A    between atoms: C_3  and  C_5 
    3  A    between atoms: C_5  and  S_6 
    4  A    between atoms: S_6  and  C_7 
    5  A    between atoms: C_10  and  O_11 

>  <TORSDO>
F 5

$$$$
C:\Users\siddh\.mgltools\PyRx\Ligands\ZINC000017314585_uff_E=453.86.pdbqt
 OpenBabel04182118313D

 15 15  0  0  1  0  0  0  0  0999 V2000
    0.6610   -0.5080    0.9860 C   0  0  0  0  0  0  0  0  0  0  0  0
    1.2610    0.2080    2.0370 C   0  0  0  0  0  3  0  0  0  0  0  0
    1.8460   -0.4560    3.0640 N   0  0  0  0  0  0  0  0  0  0  0  0
    2.2690    0.0720    3.8270 H   0  0  0  0  0  0  0  0  0  0  0  0
    1.8770   -1.8120    3.0940 C   0  0  2  0  0  3  0  0  0  0  0  0
    1.3100   -2.5320    2.0920 N   0  0  0  0  0  0  0  0  0  0  0  0
    0.7080   -1.9060    1.0340 C   0  0  0  0  0  0  0  0  0  0  0  0
    0.2010   -2.5700    0.1480 O   0  0  0  0  0  0  0  0  0  0  0  0
    1.3330   -3.5150    2.1260 H   0  0  0  0  0  0  0  0  0  0  0  0
    2.5130   -2.6410    4.5320 S   0  0  0  0  0  0  0  0  0  0  0  0
    1.3860   -3.0800    5.8760 C   0  0  0  0  0  1  0  0  0  0  0  0
    3.3040   -3.8810    4.0870 O   0  0  0  0  0  0  0  0  0  0  0  0
    3.6550   -1.7880    5.1040 O   0  0  0  0  0  0  0  0  0  0  0  0
    0.0360    0.1090   -0.0520 O   0  0  0  0  0  0  0  0  0  0  0  0
   -0.1070    1.4750   -0.1800 C   0  0  0  0  0  1  0  0  0  0  0  0
  1  7  1  0  0  0  0
  1  2  2  0  0  0  0
  2  3  1  0  0  0  0
  3  5  1  0  0  0  0
  3  4  1  0  0  0  0
  5 10  1  1  0  0  0
  6  9  1  0  0  0  0
  6  5  1  0  0  0  0
  7  6  1  0  0  0  0
  8  7  2  0  0  0  0
 10 13  2  0  0  0  0
 10 11  1  0  0  0  0
 12 10  2  0  0  0  0
 14  1  1  0  0  0  0
 15 14  1  0  0  0  0
M  END
>  <REMARK>
  2 active torsions:
  status: ('A' for Active; 'I' for Inactive)
    1  A    between atoms: O_2  and  C_3 
    2  A    between atoms: C_7  and  S_8 

>  <TORSDO>
F 2

$$$$
C:\Users\siddh\.mgltools\PyRx\Ligands\ZINC000017110030_uff_E=129.60.pdbqt
 OpenBabel04182118313D

 19 19  0  0  1  0  0  0  0  0999 V2000
    2.9060   -4.5710   -3.7140 C   0  0  2  0  0  3  0  0  0  0  0  0
    3.1140   -3.6580   -4.6990 N   0  0  0  0  0  0  0  0  0  0  0  0
    2.7190   -2.7230   -4.6040 H   0  0  0  0  0  0  0  0  0  0  0  0
    3.8250   -3.9600   -5.7880 N   0  0  0  0  0  0  0  0  0  0  0  0
    4.3710   -5.2090   -5.9400 C   0  0  0  0  0  0  0  0  0  0  0  0
    5.0060   -5.4850   -6.9430 O   0  0  0  0  0  0  0  0  0  0  0  0
    4.1980   -6.1460   -4.9620 N   0  0  0  0  0  0  0  0  0  0  0  0
    3.4700   -5.8450   -3.8460 C   0  0  0  0  0  0  0  0  0  0  0  0
    3.3090   -6.6890   -2.9820 O   0  0  0  0  0  0  0  0  0  0  0  0
    3.9540   -3.2390   -6.5320 H   0  0  0  0  0  0  0  0  0  0  0  0
    4.5980   -7.0400   -5.0620 H   0  0  0  0  0  0  0  0  0  0  0  0
    1.8800   -4.1940   -2.2730 S   0  0  0  0  0  0  0  0  0  0  0  0
    1.4480   -2.4220   -2.5440 C   0  0  1  0  0  3  0  0  0  0  0  0
    0.4600   -2.2700   -3.7080 C   0  0  0  0  0  1  0  0  0  0  0  0
    0.8180   -1.8680   -1.2780 C   0  0  0  0  0  0  0  0  0  0  0  0
    0.5430   -2.6220   -0.3520 O   0  0  0  0  0  0  0  0  0  0  0  0
    0.5810   -0.5330   -1.1550 O   0  0  0  0  0  0  0  0  0  0  0  0
   -0.0180    0.0030   -0.0270 C   0  0  0  0  0  2  0  0  0  0  0  0
   -0.0120    1.5230   -0.0780 C   0  0  0  0  0  1  0  0  0  0  0  0
  1 12  1  6  0  0  0
  2  3  1  0  0  0  0
  2  1  1  0  0  0  0
  4  2  1  0  0  0  0
  5  4  1  0  0  0  0
  5  7  1  0  0  0  0
  6  5  2  0  0  0  0
  7  8  1  0  0  0  0
  8  1  1  0  0  0  0
  8  9  2  0  0  0  0
 10  4  1  0  0  0  0
 11  7  1  0  0  0  0
 13 14  1  6  0  0  0
 13 12  1  0  0  0  0
 13 15  1  0  0  0  0
 15 17  1  0  0  0  0
 15 16  2  0  0  0  0
 17 18  1  0  0  0  0
 19 18  1  0  0  0  0
M  END
>  <REMARK>
  5 active torsions:
  status: ('A' for Active; 'I' for Inactive)
    1  A    between atoms: C_2  and  O_3 
    2  A    between atoms: O_3  and  C_4 
    3  A    between atoms: C_4  and  C_6 
    4  A    between atoms: C_6  and  S_8 
    5  A    between atoms: S_8  and  C_9 

>  <TORSDO>
F 5

$$$$
C:\Users\siddh\.mgltools\PyRx\Ligands\ZINC000017110022_uff_E=114.81.pdbqt
 OpenBabel04182118313D

 17 17  0  0  1  0  0  0  0  0999 V2000
   -2.8850   -4.4560    0.0070 C   0  0  2  0  0  3  0  0  0  0  0  0
   -1.6680   -5.0610   -0.0040 N   0  0  0  0  0  0  0  0  0  0  0  0
   -0.8240   -4.4890   -0.0060 H   0  0  0  0  0  0  0  0  0  0  0  0
   -1.5600   -6.3930   -0.0130 N   0  0  0  0  0  0  0  0  0  0  0  0
   -2.6810   -7.1860   -0.0100 C   0  0  0  0  0  0  0  0  0  0  0  0
   -2.5770   -8.4000   -0.0180 O   0  0  0  0  0  0  0  0  0  0  0  0
   -3.9180   -6.6090    0.0010 N   0  0  0  0  0  0  0  0  0  0  0  0
   -4.0370   -5.2490    0.0090 C   0  0  0  0  0  0  0  0  0  0  0  0
   -5.1440   -4.7380    0.0190 O   0  0  0  0  0  0  0  0  0  0  0  0
   -0.6120   -6.8300   -0.0210 H   0  0  0  0  0  0  0  0  0  0  0  0
   -4.7240   -7.1740    0.0020 H   0  0  0  0  0  0  0  0  0  0  0  0
   -3.0480   -2.6630    0.0180 S   0  0  0  0  0  0  0  0  0  0  0  0
   -1.2920   -2.1270    0.0030 C   0  0  0  0  0  2  0  0  0  0  0  0
   -1.2450   -0.6160    0.0110 C   0  0  0  0  0  0  0  0  0  0  0  0
   -2.2870    0.0280    0.0240 O   0  0  0  0  0  0  0  0  0  0  0  0
   -0.0520    0.0340    0.0030 O   0  0  0  0  0  0  0  0  0  0  0  0
    0.0210    1.4150    0.0090 C   0  0  0  0  0  1  0  0  0  0  0  0
  1  8  1  0  0  0  0
  1 12  1  6  0  0  0
  2  1  1  0  0  0  0
  3  2  1  0  0  0  0
  4  5  1  0  0  0  0
  4  2  1  0  0  0  0
  5  7  1  0  0  0  0
  6  5  2  0  0  0  0
  7 11  1  0  0  0  0
  7  8  1  0  0  0  0
  8  9  2  0  0  0  0
 10  4  1  0  0  0  0
 13 14  1  0  0  0  0
 13 12  1  0  0  0  0
 14 15  2  0  0  0  0
 16 17  1  0  0  0  0
 16 14  1  0  0  0  0
M  END
>  <REMARK>
  4 active torsions:
  status: ('A' for Active; 'I' for Inactive)
    1  A    between atoms: O_2  and  C_3 
    2  A    between atoms: C_3  and  C_5 
    3  A    between atoms: C_5  and  S_6 
    4  A    between atoms: S_6  and  C_7 

>  <TORSDO>
F 4

$$$$
C:\Users\siddh\.mgltools\PyRx\Ligands\ZINC000017083504_uff_E=182.89.pdbqt
 OpenBabel04182118313D

 21 22  0  0  1  0  0  0  0  0999 V2000
    0.0200    0.0280    0.0240 C   0  0  1  0  0  3  0  0  0  0  0  0
   -1.3800   -0.5060    0.1570 C   0  0  0  0  0  0  0  0  0  0  0  0
   -2.0310   -0.1950    1.1460 O   0  0  0  0  0  0  0  0  0  0  0  0
   -1.9230   -1.3160   -0.8060 N   0  0  0  0  0  0  0  0  0  0  0  0
   -1.1860   -1.6620   -1.9120 C   0  0  0  0  0  0  0  0  0  0  0  0
   -1.6710   -2.3810   -2.7730 O   0  0  0  0  0  0  0  0  0  0  0  0
    0.0870   -1.2240   -2.0770 N   0  0  0  0  0  0  0  0  0  0  0  0
    0.5930   -1.5170   -2.9130 H   0  0  0  0  0  0  0  0  0  0  0  0
    0.6940   -0.4600   -1.2360 C   0  0  2  0  0  3  0  0  0  0  0  0
   -3.2950   -1.7980   -0.6640 C   0  0  0  0  0  2  0  0  0  0  0  0
   -4.2470   -0.8330   -1.3100 C   0  0  0  0  0  0  0  0  0  0  0  0
   -4.5720   -0.9620   -2.6690 C   0  0  0  0  0  3  0  0  0  0  0  0
   -5.4500   -0.0570   -3.2690 C   0  0  0  0  0  3  0  0  0  0  0  0
   -6.0080    0.9800   -2.5170 C   0  0  0  0  0  3  0  0  0  0  0  0
   -5.6860    1.1150   -1.1630 C   0  0  0  0  0  3  0  0  0  0  0  0
   -4.8080    0.2120   -0.5590 C   0  0  0  0  0  3  0  0  0  0  0  0
   -0.0210    1.4900    0.0420 N   0  0  0  0  0  0  0  0  0  0  0  0
    0.9520    1.8720    0.0050 H   0  0  0  0  0  0  0  0  0  0  0  0
   -0.5550    1.8430   -0.7870 H   0  0  0  0  0  0  0  0  0  0  0  0
    1.9630   -0.0880   -1.4880 O   0  0  0  0  0  0  0  0  0  0  0  0
    2.4170    0.4680   -0.8860 H   0  0  0  0  0  0  0  0  0  0  0  0
  1 17  1  6  0  0  0
  1  2  1  0  0  0  0
  2  3  2  0  0  0  0
  4 10  1  0  0  0  0
  4  2  1  0  0  0  0
  5  4  1  0  0  0  0
  6  5  2  0  0  0  0
  7  5  1  0  0  0  0
  7  9  1  0  0  0  0
  8  7  1  0  0  0  0
  9 20  1  1  0  0  0
  9  1  1  0  0  0  0
 11 10  1  0  0  0  0
 11 16  1  0  0  0  0
 12 11  2  0  0  0  0
 13 12  1  0  0  0  0
 13 14  2  0  0  0  0
 14 15  1  0  0  0  0
 15 16  2  0  0  0  0
 18 17  1  0  0  0  0
 19 17  1  0  0  0  0
 20 21  1  0  0  0  0
M  END
>  <REMARK>
  4 active torsions:
  status: ('A' for Active; 'I' for Inactive)
    1  A    between atoms: N_1  and  C_2 
    2  A    between atoms: N_5  and  C_6 
    3  A    between atoms: C_6  and  C_7 
    4  A    between atoms: C_17  and  O_18 

>  <TORSDO>
F 4

$$$$
C:\Users\siddh\.mgltools\PyRx\Ligands\ZINC000016971447_uff_E=172.78.pdbqt
 OpenBabel04182118313D

 17 17  0  0  0  0  0  0  0  0999 V2000
   -0.0350    1.4880    0.0310 C   0  0  0  0  0  1  0  0  0  0  0  0
    0.0110    0.0220   -0.0150 N   0  0  0  0  0  0  0  0  0  0  0  0
   -1.3480   -0.5500   -0.0970 C   0  0  0  0  0  2  0  0  0  0  0  0
   -1.2440   -2.0650   -0.2860 C   0  0  0  0  0  2  0  0  0  0  0  0
   -0.4430   -2.6250    0.8020 N   0  0  0  0  0  0  0  0  0  0  0  0
   -0.9320   -3.6500    1.5800 C   0  0  0  0  0  0  0  0  0  0  0  0
   -2.0490   -4.0960    1.3570 O   0  0  0  0  0  0  0  0  0  0  0  0
    0.8770   -2.0380    1.0020 C   0  0  0  0  0  2  0  0  0  0  0  0
    0.7230   -0.5220    1.1610 C   0  0  0  0  0  2  0  0  0  0  0  0
   -0.1130   -4.2740    2.6990 C   0  0  0  0  0  2  0  0  0  0  0  0
   -1.0430   -5.6500    3.4700 S   0  0  0  0  0  0  0  0  0  0  0  0
    0.2090   -6.1240    4.7080 C   0  0  0  0  0  2  0  0  0  0  0  0
   -0.2970   -7.2750    5.5350 C   0  0  0  0  0  3  0  0  0  0  0  0
   -1.5140   -7.8110    5.3080 O   0  0  0  0  0  0  0  0  0  0  0  0
   -1.8160   -8.5270    5.8310 H   0  0  0  0  0  0  0  0  0  0  0  0
    0.4720   -7.7790    6.5170 O   0  0  0  0  0  0  0  0  0  0  0  0
    1.3190   -7.4150    6.6820 H   0  0  0  0  0  0  0  0  0  0  0  0
  2  1  1  0  0  0  0
  2  9  1  0  0  0  0
  3  2  1  0  0  0  0
  4  3  1  0  0  0  0
  4  5  1  0  0  0  0
  5  8  1  0  0  0  0
  5  6  1  0  0  0  0
  6 10  1  0  0  0  0
  7  6  2  0  0  0  0
  8  9  1  0  0  0  0
 10 11  1  0  0  0  0
 11 12  1  0  0  0  0
 12 13  1  0  0  0  0
 13 16  1  0  0  0  0
 14 13  1  0  0  0  0
 14 15  1  0  0  0  0
 16 17  1  0  0  0  0
M  END
>  <REMARK>
  6 active torsions:
  status: ('A' for Active; 'I' for Inactive)
       I    between atoms: N_5  and  C_6 
    1  A    between atoms: C_6  and  C_8 
    2  A    between atoms: C_8  and  S_9 
    3  A    between atoms: S_9  and  C_10 
    4  A    between atoms: C_10  and  C_11 
    5  A    between atoms: C_11  and  O_12 
    6  A    between atoms: C_11  and  O_13 

>  <TORSDO>
F 6

$$$$
C:\Users\siddh\.mgltools\PyRx\Ligands\ZINC000016283433_uff_E=390.12.pdbqt
 OpenBabel04182118313D

 20 21  0  0  1  0  0  0  0  0999 V2000
   -0.0170    1.4890    0.0300 C   0  0  0  0  0  1  0  0  0  0  0  0
    0.0030   -0.0100    0.0130 C   0  0  0  0  0  0  0  0  0  0  0  0
    0.0090   -0.6880   -1.2260 C   0  0  0  0  0  3  0  0  0  0  0  0
    0.0240   -2.0860   -1.2360 C   0  0  0  0  0  0  0  0  0  0  0  0
    0.0310   -2.6970   -2.2890 O   0  0  0  0  0  0  0  0  0  0  0  0
    0.0290   -2.7400   -0.0320 N   0  0  0  0  0  0  0  0  0  0  0  0
    0.0370   -4.0390    0.3230 C   0  0  2  0  0  3  0  0  0  0  0  0
    0.0530   -4.1550    1.6730 N   0  0  0  0  0  0  0  0  0  0  0  0
    0.0670   -5.0250    2.2050 H   0  0  0  0  0  0  0  0  0  0  0  0
    0.0470   -2.9230    2.1780 N   0  0  0  0  0  0  0  0  0  0  0  0
    0.0520   -2.6680    3.1650 H   0  0  0  0  0  0  0  0  0  0  0  0
    0.0310   -2.0800    1.1280 C   0  0  1  0  0  3  0  0  0  0  0  0
    0.0200   -0.7220    1.1860 N   0  0  0  0  0  0  0  0  0  0  0  0
    0.0230   -0.2310    2.1090 H   0  0  0  0  0  0  0  0  0  0  0  0
    0.0720   -5.2100   -0.6220 C   0  0  0  0  0  2  0  0  0  0  0  0
    1.4840   -5.5910   -0.9610 C   0  0  0  0  0  3  0  0  0  0  0  0
    2.5280   -4.9240   -0.4300 O   0  0  0  0  0  0  0  0  0  0  0  0
    3.4040   -5.1730   -0.6500 H   0  0  0  0  0  0  0  0  0  0  0  0
    1.7110   -6.6160   -1.8040 O   0  0  0  0  0  0  0  0  0  0  0  0
    0.9910   -7.0840   -2.1780 H   0  0  0  0  0  0  0  0  0  0  0  0
  2  1  1  0  0  0  0
  2 13  1  0  0  0  0
  3  2  2  0  0  0  0
  4  3  1  0  0  0  0
  4  6  1  0  0  0  0
  5  4  2  0  0  0  0
  6  7  1  0  0  0  0
  7 15  1  6  0  0  0
  7  8  1  0  0  0  0
  8 10  1  0  0  0  0
  8  9  1  0  0  0  0
 10 11  1  0  0  0  0
 12  6  1  6  0  0  0
 12 13  1  0  0  0  0
 12 10  1  0  0  0  0
 13 14  1  0  0  0  0
 16 15  1  0  0  0  0
 16 17  1  0  0  0  0
 18 17  1  0  0  0  0
 19 16  1  0  0  0  0
 20 19  1  0  0  0  0
M  END
>  <REMARK>
  4 active torsions:
  status: ('A' for Active; 'I' for Inactive)
    1  A    between atoms: C_7  and  C_8 
    2  A    between atoms: C_8  and  C_9 
    3  A    between atoms: C_9  and  O_10 
    4  A    between atoms: C_9  and  O_11 

>  <TORSDO>
F 4

$$$$
C:\Users\siddh\.mgltools\PyRx\Ligands\ZINC000015828482_uff_E=377.97.pdbqt
 OpenBabel04182118313D

 19 20  0  0  0  0  0  0  0  0999 V2000
   -0.0110    1.5050    0.0100 C   0  0  0  0  0  1  0  0  0  0  0  0
   -0.0020    0.0330   -0.0150 N   0  0  0  0  0  0  0  0  0  0  0  0
   -1.1580   -0.7180    0.0010 C   0  0  0  0  0  0  0  0  0  0  0  0
   -1.1140   -2.0840    0.0090 C   0  0  0  0  0  0  0  0  0  0  0  0
   -2.4080   -2.5520    0.0450 C   0  0  0  0  0  3  0  0  0  0  0  0
   -3.2160   -1.4290    0.0640 C   0  0  0  0  0  3  0  0  0  0  0  0
   -2.4600   -0.3040    0.0280 N   0  0  0  0  0  0  0  0  0  0  0  0
    0.0860   -2.7670   -0.0120 C   0  0  0  0  0  0  0  0  0  0  0  0
    0.0980   -3.9880   -0.0070 O   0  0  0  0  0  0  0  0  0  0  0  0
    1.2620   -2.0380   -0.0310 N   0  0  0  0  0  0  0  0  0  0  0  0
    2.5710   -2.7130   -0.0380 C   0  0  0  0  0  1  0  0  0  0  0  0
    1.2180   -0.6470   -0.0320 C   0  0  0  0  0  0  0  0  0  0  0  0
    2.2670   -0.0170   -0.0400 O   0  0  0  0  0  0  0  0  0  0  0  0
   -3.0560    1.0380    0.0000 C   0  0  0  0  0  2  0  0  0  0  0  0
   -3.0280    1.6190   -1.3860 C   0  0  0  0  0  3  0  0  0  0  0  0
   -2.5360    0.9080   -2.4200 O   0  0  0  0  0  0  0  0  0  0  0  0
   -2.5240    1.2790   -3.2800 H   0  0  0  0  0  0  0  0  0  0  0  0
   -3.5330    2.8470   -1.6040 O   0  0  0  0  0  0  0  0  0  0  0  0
   -3.8760    3.3470   -0.8900 H   0  0  0  0  0  0  0  0  0  0  0  0
  2  3  1  0  0  0  0
  2  1  1  0  0  0  0
  3  4  2  0  0  0  0
  3  7  1  0  0  0  0
  4  5  1  0  0  0  0
  5  6  2  0  0  0  0
  7  6  1  0  0  0  0
  8  9  2  0  0  0  0
  8  4  1  0  0  0  0
 10  8  1  0  0  0  0
 11 10  1  0  0  0  0
 12 10  1  0  0  0  0
 12  2  1  0  0  0  0
 13 12  2  0  0  0  0
 14  7  1  0  0  0  0
 15 14  1  0  0  0  0
 16 15  1  0  0  0  0
 17 16  1  0  0  0  0
 18 15  1  0  0  0  0
 18 19  1  0  0  0  0
M  END
>  <REMARK>
  4 active torsions:
  status: ('A' for Active; 'I' for Inactive)
    1  A    between atoms: N_7  and  C_8 
    2  A    between atoms: C_8  and  C_9 
    3  A    between atoms: C_9  and  O_10 
    4  A    between atoms: C_9  and  O_11 

>  <TORSDO>
F 4

$$$$
C:\Users\siddh\.mgltools\PyRx\Ligands\ZINC000015775024_uff_E=152.58.pdbqt
 OpenBabel04182118313D

 17 17  0  0  1  0  0  0  0  0999 V2000
   -0.1060   -0.1470   -2.4500 N   0  0  0  0  0  0  0  0  0  0  0  0
    0.4750    0.7680   -3.4360 C   0  0  0  0  0  2  0  0  0  0  0  0
    0.0650    0.3440   -4.8430 C   0  0  0  0  0  2  0  0  0  0  0  0
   -1.3920    0.2930   -4.9370 N   0  0  0  0  0  0  0  0  0  0  0  0
   -2.0680    0.7360   -6.1450 C   0  0  0  0  0  1  0  0  0  0  0  0
   -2.1050   -0.2300   -3.8950 C   0  0  0  0  0  0  0  0  0  0  0  0
   -3.3130   -0.4020   -3.9870 O   0  0  0  0  0  0  0  0  0  0  0  0
   -1.4010   -0.5740   -2.6360 C   0  0  0  0  0  0  0  0  0  0  0  0
   -1.9730   -1.2470   -1.7900 O   0  0  0  0  0  0  0  0  0  0  0  0
    0.6870   -0.5350   -1.2710 C   0  0  1  0  0  3  0  0  0  0  0  0
    0.0710    0.0100    0.0400 C   0  0  0  0  0  2  0  0  0  0  0  0
   -0.0190    1.5360    0.0340 C   0  0  0  0  0  1  0  0  0  0  0  0
    0.8890   -2.0330   -1.1960 C   0  0  0  0  0  3  0  0  0  0  0  0
    0.3700   -2.8530   -2.1320 O   0  0  0  0  0  0  0  0  0  0  0  0
    0.5040   -3.7780   -2.0720 H   0  0  0  0  0  0  0  0  0  0  0  0
    1.6240   -2.5590   -0.1970 O   0  0  0  0  0  0  0  0  0  0  0  0
    1.9900   -1.9990    0.4600 H   0  0  0  0  0  0  0  0  0  0  0  0
  1 10  1  0  0  0  0
  2  1  1  0  0  0  0
  3  2  1  0  0  0  0
  4  3  1  0  0  0  0
  4  6  1  0  0  0  0
  5  4  1  0  0  0  0
  6  8  1  0  0  0  0
  7  6  2  0  0  0  0
  8  1  1  0  0  0  0
  8  9  2  0  0  0  0
 10 13  1  0  0  0  0
 10 11  1  1  0  0  0
 12 11  1  0  0  0  0
 13 16  1  0  0  0  0
 14 15  1  0  0  0  0
 14 13  1  0  0  0  0
 16 17  1  0  0  0  0
M  END
>  <REMARK>
  5 active torsions:
  status: ('A' for Active; 'I' for Inactive)
    1  A    between atoms: C_2  and  C_3 
    2  A    between atoms: C_3  and  C_4 
    3  A    between atoms: C_3  and  N_7 
    4  A    between atoms: C_4  and  O_5 
    5  A    between atoms: C_4  and  O_6 

>  <TORSDO>
F 5

$$$$
C:\Users\siddh\.mgltools\PyRx\Ligands\ZINC000015775022_uff_E=151.29.pdbqt
 OpenBabel04182118313D

 17 17  0  0  1  0  0  0  0  0999 V2000
    2.1570   -0.1070   -1.1570 N   0  0  0  0  0  0  0  0  0  0  0  0
    2.7340    0.6830   -2.2480 C   0  0  0  0  0  2  0  0  0  0  0  0
    3.7070    1.7160   -1.6880 C   0  0  0  0  0  2  0  0  0  0  0  0
    4.7340    1.0470   -0.8950 N   0  0  0  0  0  0  0  0  0  0  0  0
    6.1160    1.4980   -0.9500 C   0  0  0  0  0  1  0  0  0  0  0  0
    4.3680    0.0260   -0.0640 C   0  0  0  0  0  0  0  0  0  0  0  0
    5.1770   -0.4770    0.7040 O   0  0  0  0  0  0  0  0  0  0  0  0
    2.9770   -0.4900   -0.1200 C   0  0  0  0  0  0  0  0  0  0  0  0
    2.5800   -1.2470    0.7550 O   0  0  0  0  0  0  0  0  0  0  0  0
    0.7430   -0.5110   -1.2320 C   0  0  2  0  0  3  0  0  0  0  0  0
   -0.0740    0.0280   -0.0350 C   0  0  0  0  0  2  0  0  0  0  0  0
   -0.0520    1.5530    0.0350 C   0  0  0  0  0  1  0  0  0  0  0  0
    0.5900   -2.0120   -1.3590 C   0  0  0  0  0  3  0  0  0  0  0  0
   -0.6380   -2.5470   -1.5030 O   0  0  0  0  0  0  0  0  0  0  0  0
   -0.7390   -3.4750   -1.5820 H   0  0  0  0  0  0  0  0  0  0  0  0
    1.6670   -2.8230   -1.3760 O   0  0  0  0  0  0  0  0  0  0  0  0
    2.5260   -2.4620   -1.2770 H   0  0  0  0  0  0  0  0  0  0  0  0
  1  8  1  0  0  0  0
  2  3  1  0  0  0  0
  2  1  1  0  0  0  0
  3  4  1  0  0  0  0
  4  6  1  0  0  0  0
  5  4  1  0  0  0  0
  6  7  2  0  0  0  0
  8  6  1  0  0  0  0
  8  9  2  0  0  0  0
 10  1  1  0  0  0  0
 10 11  1  1  0  0  0
 11 12  1  0  0  0  0
 13 10  1  0  0  0  0
 14 13  1  0  0  0  0
 15 14  1  0  0  0  0
 16 13  1  0  0  0  0
 16 17  1  0  0  0  0
M  END
>  <REMARK>
  5 active torsions:
  status: ('A' for Active; 'I' for Inactive)
    1  A    between atoms: C_2  and  C_3 
    2  A    between atoms: C_3  and  C_4 
    3  A    between atoms: C_3  and  N_7 
    4  A    between atoms: C_4  and  O_5 
    5  A    between atoms: C_4  and  O_6 

>  <TORSDO>
F 5

$$$$
C:\Users\siddh\.mgltools\PyRx\Ligands\ZINC000015442563_uff_E=94.94.pdbqt
 OpenBabel04182118313D

 18 17  0  0  1  0  0  0  0  0999 V2000
    2.0720   -0.0210   -1.3050 C   0  0  0  0  0  0  0  0  0  0  0  0
    2.6960    0.6630   -0.5050 O   0  0  0  0  0  0  0  0  0  0  0  0
    2.6850   -0.4530   -2.4380 N   0  0  0  0  0  0  0  0  0  0  0  0
    2.1570   -1.0260   -3.1160 H   0  0  0  0  0  0  0  0  0  0  0  0
    4.0770   -0.1180   -2.6840 C   0  0  0  0  0  2  0  0  0  0  0  0
    4.6000   -0.6830   -4.0140 C   0  0  1  0  0  3  0  0  0  0  0  0
    3.8630   -0.1760   -5.1000 O   0  0  0  0  0  0  0  0  0  0  0  0
    3.9330    0.8150   -5.0790 H   0  0  0  0  0  0  0  0  0  0  0  0
    6.0710   -0.3730   -4.1630 C   0  0  0  0  0  3  0  0  0  0  0  0
    6.9470   -0.8220   -3.2420 O   0  0  0  0  0  0  0  0  0  0  0  0
    7.8600   -0.6310   -3.3320 H   0  0  0  0  0  0  0  0  0  0  0  0
    6.5190    0.3530   -5.2050 O   0  0  0  0  0  0  0  0  0  0  0  0
    5.9170    0.6690   -5.8500 H   0  0  0  0  0  0  0  0  0  0  0  0
    0.7680   -0.3510   -1.0640 O   0  0  0  0  0  0  0  0  0  0  0  0
    0.0220    0.0370    0.0510 C   0  0  0  0  0  0  0  0  0  0  0  0
   -0.1120    1.5750    0.1020 C   0  0  0  0  0  1  0  0  0  0  0  0
    0.6600   -0.5030    1.3510 C   0  0  0  0  0  1  0  0  0  0  0  0
   -1.3870   -0.5650   -0.0750 C   0  0  0  0  0  1  0  0  0  0  0  0
  1 14  1  0  0  0  0
  1  2  2  0  0  0  0
  3  1  1  0  0  0  0
  4  3  1  0  0  0  0
  5  3  1  0  0  0  0
  6  5  1  1  0  0  0
  7  8  1  0  0  0  0
  7  6  1  0  0  0  0
  9  6  1  0  0  0  0
  9 10  1  0  0  0  0
 11 10  1  0  0  0  0
 12  9  1  0  0  0  0
 13 12  1  0  0  0  0
 14 15  1  0  0  0  0
 15 16  1  0  0  0  0
 15 17  1  0  0  0  0
 18 15  1  0  0  0  0
M  END
>  <REMARK>
  8 active torsions:
  status: ('A' for Active; 'I' for Inactive)
    1  A    between atoms: C_2  and  O_5 
    2  A    between atoms: O_5  and  C_6 
       I    between atoms: C_6  and  N_8 
    3  A    between atoms: N_8  and  C_9 
    4  A    between atoms: C_9  and  C_10 
    5  A    between atoms: C_10  and  O_11 
    6  A    between atoms: C_10  and  C_12 
    7  A    between atoms: C_12  and  O_13 
    8  A    between atoms: C_12  and  O_14 

>  <TORSDO>
F 8

$$$$
C:\Users\siddh\.mgltools\PyRx\Ligands\ZINC000015221730_uff_E=687.94.pdbqt
 OpenBabel04182118313D

 22 23  0  0  0  0  0  0  0  0999 V2000
   -0.0330    1.4600    0.0390 C   0  0  0  0  0  1  0  0  0  0  0  0
   -0.0140   -0.0330    0.0290 C   0  0  0  0  0  0  0  0  0  0  0  0
    0.0300   -0.8910   -1.0870 C   0  0  0  0  0  0  0  0  0  0  0  0
    0.0350   -2.1270   -0.5740 N   0  0  0  0  0  0  0  0  0  0  0  0
    0.0640   -3.3790   -0.9960 N   0  0  0  0  0  0  0  0  0  0  0  0
    0.0600   -4.1510    0.1280 C   0  0  0  0  0  0  0  0  0  0  0  0
    0.0880   -5.6450    0.1360 C   0  0  0  0  0  1  0  0  0  0  0  0
    0.0260   -3.2850    1.2370 C   0  0  0  0  0  0  0  0  0  0  0  0
    0.0060   -2.0510    0.7170 N   0  0  0  0  0  0  0  0  0  0  0  0
   -0.0320   -0.8050    1.1560 N   0  0  0  0  0  0  0  0  0  0  0  0
   -0.0660   -0.4880    2.1240 H   0  0  0  0  0  0  0  0  0  0  0  0
    0.0890   -3.6900   -1.9920 H   0  0  0  0  0  0  0  0  0  0  0  0
    0.0530   -0.5500   -2.5210 C   0  0  0  0  0  3  0  0  0  0  0  0
    0.0710   -1.5250   -3.4490 O   0  0  0  0  0  0  0  0  0  0  0  0
    0.0860   -1.3050   -4.3600 H   0  0  0  0  0  0  0  0  0  0  0  0
    0.0450    0.7380   -2.9150 O   0  0  0  0  0  0  0  0  0  0  0  0
    0.0320    1.4230   -2.2760 H   0  0  0  0  0  0  0  0  0  0  0  0
    0.0250   -3.6090    2.6730 C   0  0  0  0  0  3  0  0  0  0  0  0
    0.0560   -4.8900    3.0840 O   0  0  0  0  0  0  0  0  0  0  0  0
    0.0550   -5.0890    3.9990 H   0  0  0  0  0  0  0  0  0  0  0  0
    0.0080   -2.6190    3.5860 O   0  0  0  0  0  0  0  0  0  0  0  0
   -0.0140   -1.7250    3.3080 H   0  0  0  0  0  0  0  0  0  0  0  0
  2  1  1  0  0  0  0
  2 10  1  0  0  0  0
  3  4  1  0  0  0  0
  3  2  2  0  0  0  0
  4  9  1  0  0  0  0
  5  4  1  0  0  0  0
  5  6  1  0  0  0  0
  6  7  1  0  0  0  0
  6  8  2  0  0  0  0
  8 18  1  0  0  0  0
  9 10  1  0  0  0  0
  9  8  1  0  0  0  0
 10 11  1  0  0  0  0
 12  5  1  0  0  0  0
 13  3  1  0  0  0  0
 14 13  1  0  0  0  0
 15 14  1  0  0  0  0
 16 13  1  0  0  0  0
 16 17  1  0  0  0  0
 18 19  1  0  0  0  0
 18 21  1  0  0  0  0
 19 20  1  0  0  0  0
 22 21  1  0  0  0  0
M  END
>  <REMARK>
  6 active torsions:
  status: ('A' for Active; 'I' for Inactive)
    1  A    between atoms: C_3  and  C_4 
    2  A    between atoms: C_4  and  O_5 
    3  A    between atoms: C_4  and  O_6 
    4  A    between atoms: C_11  and  C_12 
    5  A    between atoms: C_12  and  O_13 
    6  A    between atoms: C_12  and  O_14 

>  <TORSDO>
F 6

$$$$
C:\Users\siddh\.mgltools\PyRx\Ligands\ZINC000014988494_uff_E=385.12.pdbqt
 OpenBabel04182118313D

 24 25  0  0  1  0  0  0  0  0999 V2000
   -2.4480   -2.8760    0.0240 C   0  0  2  0  0  3  0  0  0  0  0  0
   -2.5470   -4.2190    0.0300 N   0  0  0  0  0  0  0  0  0  0  0  0
   -1.7870   -4.8980    0.0540 H   0  0  0  0  0  0  0  0  0  0  0  0
   -3.8430   -4.4650   -0.0020 N   0  0  0  0  0  0  0  0  0  0  0  0
   -4.5280   -3.3320   -0.0230 N   0  0  0  0  0  2  0  0  0  0  0  0
   -3.6770   -2.3190   -0.0090 N   0  0  0  0  0  0  0  0  0  0  0  0
   -3.9020   -1.3240   -0.0200 H   0  0  0  0  0  0  0  0  0  0  0  0
   -1.1720   -2.1330    0.0100 C   0  0  0  0  0  0  0  0  0  0  0  0
   -1.1580   -0.7290   -0.0150 C   0  0  0  0  0  3  0  0  0  0  0  0
    0.0570   -0.0230   -0.0710 C   0  0  0  0  0  0  0  0  0  0  0  0
    1.2780   -0.7480   -0.1140 C   0  0  0  0  0  0  0  0  0  0  0  0
    1.2520   -2.1450   -0.0580 C   0  0  0  0  0  3  0  0  0  0  0  0
    0.0410   -2.8330    0.0030 C   0  0  0  0  0  3  0  0  0  0  0  0
    0.0270    1.3990   -0.0760 N   0  0  0  0  0  0  0  0  0  0  0  0
    0.8840    1.9650   -0.0620 H   0  0  0  0  0  0  0  0  0  0  0  0
   -0.8740    1.8960   -0.0370 H   0  0  0  0  0  0  0  0  0  0  0  0
    2.4810   -0.1420   -0.2250 O   0  0  0  0  0  0  0  0  0  0  0  0
    2.5980    0.7990   -0.3980 H   0  0  0  0  0  0  0  0  0  0  0  0
   -4.4320   -5.7980    0.0090 C   0  0  0  0  0  2  0  0  0  0  0  0
   -4.6160   -6.2860    1.4150 C   0  0  0  0  0  3  0  0  0  0  0  0
   -4.2680   -5.5140    2.4640 O   0  0  0  0  0  0  0  0  0  0  0  0
   -4.3870   -5.8290    3.3380 H   0  0  0  0  0  0  0  0  0  0  0  0
   -5.1430   -7.5050    1.6340 O   0  0  0  0  0  0  0  0  0  0  0  0
   -5.3880   -8.0470    0.9090 H   0  0  0  0  0  0  0  0  0  0  0  0
  1  8  1  6  0  0  0
  1  2  1  0  0  0  0
  2  3  1  0  0  0  0
  4 19  1  0  0  0  0
  4  2  1  0  0  0  0
  5  6  1  0  0  0  0
  5  4  1  0  0  0  0
  6  1  1  0  0  0  0
  7  6  1  0  0  0  0
  9  8  2  0  0  0  0
 10  9  1  0  0  0  0
 11 10  2  0  0  0  0
 11 12  1  0  0  0  0
 12 13  2  0  0  0  0
 13  8  1  0  0  0  0
 14 10  1  0  0  0  0
 14 15  1  0  0  0  0
 14 16  1  0  0  0  0
 17 11  1  0  0  0  0
 18 17  1  0  0  0  0
 19 20  1  0  0  0  0
 20 23  1  0  0  0  0
 20 21  1  0  0  0  0
 21 22  1  0  0  0  0
 24 23  1  0  0  0  0
M  END
>  <REMARK>
  7 active torsions:
  status: ('A' for Active; 'I' for Inactive)
    1  A    between atoms: N_1  and  C_2 
    2  A    between atoms: C_4  and  C_5 
    3  A    between atoms: N_8  and  C_9 
    4  A    between atoms: C_9  and  C_10 
    5  A    between atoms: C_10  and  O_11 
    6  A    between atoms: C_10  and  O_12 
    7  A    between atoms: C_18  and  O_19 

>  <TORSDO>
F 7

$$$$
C:\Users\siddh\.mgltools\PyRx\Ligands\ZINC000014983624_uff_E=113.47.pdbqt
 OpenBabel04182118313D

 17 17  0  0  0  0  0  0  0  0999 V2000
    1.4680   -3.8070   -2.5390 N   0  0  0  0  0  0  0  0  0  0  0  0
    2.4960   -4.4830   -1.9050 C   0  0  0  0  0  0  0  0  0  0  0  0
    3.4170   -3.8670   -1.3900 O   0  0  0  0  0  0  0  0  0  0  0  0
    2.4850   -5.8510   -1.8390 N   0  0  0  0  0  0  0  0  0  0  0  0
    1.4560   -6.5680   -2.3910 C   0  0  0  0  0  0  0  0  0  0  0  0
    1.4550   -7.7840   -2.3240 O   0  0  0  0  0  0  0  0  0  0  0  0
    0.4090   -5.9040   -3.0220 C   0  0  0  0  0  3  0  0  0  0  0  0
    0.4260   -4.5130   -3.0870 C   0  0  0  0  0  0  0  0  0  0  0  0
    3.2660   -6.3510   -1.3570 H   0  0  0  0  0  0  0  0  0  0  0  0
    1.4580   -2.3330   -2.5630 C   0  0  0  0  0  2  0  0  0  0  0  0
    0.7670   -1.8150   -1.3320 C   0  0  0  0  0  0  0  0  0  0  0  0
    0.3170   -2.6060   -0.5110 O   0  0  0  0  0  0  0  0  0  0  0  0
    0.6410   -0.4800   -1.1280 O   0  0  0  0  0  0  0  0  0  0  0  0
    0.0050    0.0130   -0.0050 C   0  0  0  0  0  2  0  0  0  0  0  0
   -0.0080    1.5300   -0.0090 C   0  0  0  0  0  1  0  0  0  0  0  0
   -0.5980   -3.8720   -3.6820 O   0  0  0  0  0  0  0  0  0  0  0  0
   -0.6000   -2.9370   -3.7320 H   0  0  0  0  0  0  0  0  0  0  0  0
  1  2  1  0  0  0  0
  2  4  1  0  0  0  0
  2  3  2  0  0  0  0
  4  9  1  0  0  0  0
  5  6  2  0  0  0  0
  5  4  1  0  0  0  0
  7  5  1  0  0  0  0
  8  7  2  0  0  0  0
  8  1  1  0  0  0  0
 10  1  1  0  0  0  0
 10 11  1  0  0  0  0
 11 13  1  0  0  0  0
 11 12  2  0  0  0  0
 13 14  1  0  0  0  0
 15 14  1  0  0  0  0
 16  8  1  0  0  0  0
 17 16  1  0  0  0  0
M  END
>  <REMARK>
  5 active torsions:
  status: ('A' for Active; 'I' for Inactive)
    1  A    between atoms: C_2  and  O_3 
    2  A    between atoms: O_3  and  C_4 
    3  A    between atoms: C_4  and  C_6 
    4  A    between atoms: C_6  and  N_7 
    5  A    between atoms: C_14  and  O_15 

>  <TORSDO>
F 5

$$$$
C:\Users\siddh\.mgltools\PyRx\Ligands\ZINC000014611337_uff_E=708.10.pdbqt
 OpenBabel04182118313D

 22 23  0  0  1  0  0  0  0  0999 V2000
   -0.0310    1.3830    0.0080 N   0  0  0  0  0  0  0  0  0  0  0  0
    0.0150   -0.0250    0.0000 C   0  0  2  0  0  3  0  0  0  0  0  0
   -1.0730   -0.8200    0.0030 N   0  0  0  0  0  0  0  0  0  0  0  0
   -2.0470   -0.5190    0.0110 H   0  0  0  0  0  0  0  0  0  0  0  0
   -0.6320   -2.0710   -0.0060 N   0  0  0  0  0  0  0  0  0  0  0  0
    0.7140   -2.0040   -0.0150 C   0  0  2  0  0  3  0  0  0  0  0  0
    1.4970   -3.0170   -0.0250 N   0  0  0  0  0  0  0  0  0  0  0  0
    2.5040   -2.8530   -0.0310 H   0  0  0  0  0  0  0  0  0  0  0  0
    1.1500   -0.7390   -0.0110 N   0  0  0  0  0  0  0  0  0  0  0  0
    0.8440    1.9270    0.0050 H   0  0  0  0  0  0  0  0  0  0  0  0
   -0.9370    1.8710    0.0170 H   0  0  0  0  0  0  0  0  0  0  0  0
    2.1360   -0.3940   -0.0150 H   0  0  0  0  0  0  0  0  0  0  0  0
   -1.1810   -2.8880   -0.0070 H   0  0  0  0  0  0  0  0  0  0  0  0
    0.9200   -4.6700   -0.0300 S   0  0  0  0  0  0  0  0  0  0  0  0
   -0.0160   -4.7920    1.1820 O   0  0  0  0  0  0  0  0  0  0  0  0
   -0.0280   -4.7790   -1.2350 O   0  0  0  0  0  0  0  0  0  0  0  0
    2.2440   -5.8540   -0.0440 C   0  0  0  0  0  0  0  0  0  0  0  0
    2.7800   -6.3130    1.1630 C   0  0  0  0  0  3  0  0  0  0  0  0
    3.8410   -7.2200    1.1520 C   0  0  0  0  0  3  0  0  0  0  0  0
    4.3690   -7.6640   -0.0650 C   0  0  0  0  0  3  0  0  0  0  0  0
    3.8350   -7.1990   -1.2720 C   0  0  0  0  0  3  0  0  0  0  0  0
    2.7740   -6.2920   -1.2620 C   0  0  0  0  0  3  0  0  0  0  0  0
  1 11  1  0  0  0  0
  2  3  1  0  0  0  0
  2  1  1  1  0  0  0
  3  4  1  0  0  0  0
  5  3  1  0  0  0  0
  6  7  1  1  0  0  0
  6  9  1  0  0  0  0
  6  5  1  0  0  0  0
  8  7  1  0  0  0  0
  9  2  1  0  0  0  0
 10  1  1  0  0  0  0
 12  9  1  0  0  0  0
 13  5  1  0  0  0  0
 14  7  1  0  0  0  0
 14 15  2  0  0  0  0
 16 14  2  0  0  0  0
 17 14  1  0  0  0  0
 17 18  1  0  0  0  0
 19 18  2  0  0  0  0
 20 19  1  0  0  0  0
 21 22  1  0  0  0  0
 21 20  2  0  0  0  0
 22 17  2  0  0  0  0
M  END
>  <REMARK>
  2 active torsions:
  status: ('A' for Active; 'I' for Inactive)
       I    between atoms: N_1  and  C_2 
       I    between atoms: C_6  and  N_7 
    1  A    between atoms: N_7  and  S_9 
    2  A    between atoms: S_9  and  C_12 

>  <TORSDO>
F 2

$$$$
C:\Users\siddh\.mgltools\PyRx\Ligands\ZINC000014248181_uff_E=107.67.pdbqt
 OpenBabel04182118313D

 20 20  0  0  1  0  0  0  0  0999 V2000
   -1.5220    1.9570   -0.1200 C   0  0  0  0  0  0  0  0  0  0  0  0
   -2.7770    1.4620   -0.2050 C   0  0  0  0  0  2  0  0  0  0  0  0
   -3.9210    2.2770   -0.0370 N   0  0  0  0  0  0  0  0  0  0  0  0
   -3.7840    3.6550    0.2350 C   0  0  0  0  0  0  0  0  0  0  0  0
   -4.9560    4.4760    0.4100 S   0  0  0  0  0  0  0  0  0  0  0  0
   -2.4900    4.2300    0.3350 N   0  0  0  0  0  0  0  0  0  0  0  0
   -1.2600    3.4560    0.1490 C   0  0  1  0  0  0  0  0  0  0  0  0
   -4.8550    1.8430   -0.0980 H   0  0  0  0  0  0  0  0  0  0  0  0
   -2.4070    5.2400    0.5320 H   0  0  0  0  0  0  0  0  0  0  0  0
   -0.4920    3.5470    1.3260 O   0  0  0  0  0  0  0  0  0  0  0  0
   -0.2720    4.5030    1.4830 H   0  0  0  0  0  0  0  0  0  0  0  0
   -0.4950    4.0840   -1.0530 C   0  0  0  0  0  0  0  0  0  0  0  0
   -0.3120    5.4410   -0.8520 F   0  0  0  0  0  0  0  0  0  0  0  0
    0.7540    3.5260   -1.2380 F   0  0  0  0  0  0  0  0  0  0  0  0
   -1.2290    3.9090   -2.2130 F   0  0  0  0  0  0  0  0  0  0  0  0
   -0.3770    1.0040   -0.2720 C   0  0  0  0  0  0  0  0  0  0  0  0
   -0.5960   -0.2680   -0.6610 O   0  0  0  0  0  0  0  0  0  0  0  0
   -0.9430   -0.8810   -1.2790 H   0  0  0  0  0  0  0  0  0  0  0  0
    0.8830    1.3850    0.0100 O   0  0  0  0  0  0  0  0  0  0  0  0
    1.0560    2.2650    0.2820 H   0  0  0  0  0  0  0  0  0  0  0  0
  1  7  1  0  0  0  0
  2  1  1  0  0  0  0
  2  3  1  0  0  0  0
  3  4  1  0  0  0  0
  4  6  1  0  0  0  0
  4  5  2  0  0  0  0
  6  9  1  0  0  0  0
  7  6  1  0  0  0  0
  7 10  1  1  0  0  0
  8  3  1  0  0  0  0
 10 11  1  0  0  0  0
 12 13  1  0  0  0  0
 12  7  1  0  0  0  0
 14 12  1  0  0  0  0
 15 12  1  0  0  0  0
 16  1  2  0  0  0  0
 16 19  1  0  0  0  0
 17 16  1  0  0  0  0
 18 17  1  0  0  0  0
 19 20  1  0  0  0  0
M  END
>  <REMARK>
  5 active torsions:
  status: ('A' for Active; 'I' for Inactive)
    1  A    between atoms: O_1  and  C_2 
    2  A    between atoms: C_2  and  O_3 
    3  A    between atoms: C_2  and  C_4 
    4  A    between atoms: C_10  and  O_11 
    5  A    between atoms: C_10  and  C_12 

>  <TORSDO>
F 5

$$$$
C:\Users\siddh\.mgltools\PyRx\Ligands\ZINC000014248179_uff_E=107.20.pdbqt
 OpenBabel04182118313D

 20 20  0  0  1  0  0  0  0  0999 V2000
   -0.0620   -0.2130    0.0390 O   0  0  0  0  0  0  0  0  0  0  0  0
   -0.0340    1.1330   -0.0200 C   0  0  0  0  0  0  0  0  0  0  0  0
   -0.1170   -1.1420    0.1510 H   0  0  0  0  0  0  0  0  0  0  0  0
    1.1550    1.7480   -0.1640 O   0  0  0  0  0  0  0  0  0  0  0  0
    1.1970    2.6830   -0.2070 H   0  0  0  0  0  0  0  0  0  0  0  0
   -1.3060    1.9220    0.0280 C   0  0  0  0  0  0  0  0  0  0  0  0
   -1.2650    3.4630    0.1350 C   0  0  2  0  0  0  0  0  0  0  0  0
   -2.5950    4.0760    0.0970 N   0  0  0  0  0  0  0  0  0  0  0  0
   -3.7910    3.3170    0.0180 C   0  0  0  0  0  0  0  0  0  0  0  0
   -2.6600    5.1060    0.1470 H   0  0  0  0  0  0  0  0  0  0  0  0
   -3.7260    1.9080   -0.0490 N   0  0  0  0  0  0  0  0  0  0  0  0
   -5.0710    3.9810    0.0070 S   0  0  0  0  0  0  0  0  0  0  0  0
   -2.4750    1.2470   -0.0470 C   0  0  0  0  0  2  0  0  0  0  0  0
   -4.5870    1.3450   -0.1230 H   0  0  0  0  0  0  0  0  0  0  0  0
   -0.5190    3.9420   -0.9590 O   0  0  0  0  0  0  0  0  0  0  0  0
   -0.4440    4.9290   -0.8780 H   0  0  0  0  0  0  0  0  0  0  0  0
   -0.6000    3.8870    1.4770 C   0  0  0  0  0  0  0  0  0  0  0  0
   -1.3050    3.3470    2.5380 F   0  0  0  0  0  0  0  0  0  0  0  0
    0.7140    3.4760    1.5720 F   0  0  0  0  0  0  0  0  0  0  0  0
   -0.6080    5.2660    1.6040 F   0  0  0  0  0  0  0  0  0  0  0  0
  1  3  1  0  0  0  0
  2  6  2  0  0  0  0
  2  1  1  0  0  0  0
  4  2  1  0  0  0  0
  5  4  1  0  0  0  0
  6  7  1  0  0  0  0
  7 15  1  6  0  0  0
  7 17  1  0  0  0  0
  8  7  1  0  0  0  0
  8 10  1  0  0  0  0
  9  8  1  0  0  0  0
 11 13  1  0  0  0  0
 11  9  1  0  0  0  0
 12  9  2  0  0  0  0
 13  6  1  0  0  0  0
 14 11  1  0  0  0  0
 15 16  1  0  0  0  0
 17 19  1  0  0  0  0
 17 20  1  0  0  0  0
 17 18  1  0  0  0  0
M  END
>  <REMARK>
  4 active torsions:
  status: ('A' for Active; 'I' for Inactive)
    1  A    between atoms: C_2  and  O_3 
    2  A    between atoms: C_2  and  C_4 
    3  A    between atoms: C_10  and  O_11 
    4  A    between atoms: C_10  and  C_12 

>  <TORSDO>
F 4

$$$$
C:\Users\siddh\.mgltools\PyRx\Ligands\ZINC000014001469_uff_E=308.66.pdbqt
 OpenBabel04182118313D

 22 23  0  0  1  0  0  0  0  0999 V2000
   -1.4240   -0.4530   -0.0500 C   0  0  2  0  0  3  0  0  0  0  0  0
   -1.8590   -1.3340   -1.0440 C   0  0  0  0  0  3  0  0  0  0  0  0
   -3.1360   -1.8980   -0.9650 C   0  0  0  0  0  0  0  0  0  0  0  0
   -3.9860   -1.5580    0.1230 C   0  0  0  0  0  0  0  0  0  0  0  0
   -5.2940   -2.0690    0.2790 C   0  0  0  0  0  0  0  0  0  0  0  0
   -5.7680   -2.8490   -0.5290 O   0  0  0  0  0  0  0  0  0  0  0  0
   -6.0500   -1.6850    1.3510 N   0  0  0  0  0  0  0  0  0  0  0  0
   -5.5700   -0.8090    2.2850 C   0  0  0  0  0  0  0  0  0  0  0  0
   -6.2820   -0.4910    3.2240 O   0  0  0  0  0  0  0  0  0  0  0  0
   -4.2930   -0.2910    2.1650 N   0  0  0  0  0  0  0  0  0  0  0  0
   -3.7700    0.6580    3.1640 C   0  0  0  0  0  1  0  0  0  0  0  0
   -3.5040   -0.6570    1.1030 C   0  0  0  0  0  0  0  0  0  0  0  0
   -2.2470   -0.1470    0.9870 N   0  0  0  0  0  0  0  0  0  0  0  0
   -1.9090    0.4900    1.7080 H   0  0  0  0  0  0  0  0  0  0  0  0
   -7.0170   -2.0680    1.4570 H   0  0  0  0  0  0  0  0  0  0  0  0
   -3.5500   -2.8300   -2.0260 C   0  0  0  0  0  3  0  0  0  0  0  0
   -3.3510   -4.1530   -1.8730 O   0  0  0  0  0  0  0  0  0  0  0  0
   -3.6140   -4.7470   -2.5480 H   0  0  0  0  0  0  0  0  0  0  0  0
   -4.1980   -2.3690   -3.1120 O   0  0  0  0  0  0  0  0  0  0  0  0
   -4.3360   -1.4480   -3.2190 H   0  0  0  0  0  0  0  0  0  0  0  0
   -0.0570    0.1690   -0.1130 C   0  0  0  0  0  2  0  0  0  0  0  0
   -0.1630    1.6900   -0.0780 C   0  0  0  0  0  1  0  0  0  0  0  0
  1 21  1  6  0  0  0
  1 13  1  0  0  0  0
  2  3  2  0  0  0  0
  2  1  1  0  0  0  0
  3  4  1  0  0  0  0
  4  5  1  0  0  0  0
  4 12  2  0  0  0  0
  5  7  1  0  0  0  0
  6  5  2  0  0  0  0
  7 15  1  0  0  0  0
  7  8  1  0  0  0  0
  8  9  2  0  0  0  0
 10  8  1  0  0  0  0
 10 11  1  0  0  0  0
 12 10  1  0  0  0  0
 13 12  1  0  0  0  0
 13 14  1  0  0  0  0
 16 17  1  0  0  0  0
 16  3  1  0  0  0  0
 18 17  1  0  0  0  0
 19 16  1  0  0  0  0
 20 19  1  0  0  0  0
 21 22  1  0  0  0  0
M  END
>  <REMARK>
  4 active torsions:
  status: ('A' for Active; 'I' for Inactive)
    1  A    between atoms: C_2  and  C_3 
    2  A    between atoms: C_5  and  C_6 
    3  A    between atoms: C_6  and  O_7 
    4  A    between atoms: C_6  and  O_8 

>  <TORSDO>
F 4

$$$$
C:\Users\siddh\.mgltools\PyRx\Ligands\ZINC000013659163_uff_E=151.71.pdbqt
 OpenBabel04182118313D

 18 19  0  0  0  0  0  0  0  0999 V2000
    0.0240    0.0340    0.0030 O   0  0  0  0  0  0  0  0  0  0  0  0
    0.0120    1.2530    0.0120 C   0  0  0  0  0  0  0  0  0  0  0  0
   -1.1840    1.9210    0.0330 N   0  0  0  0  0  0  0  0  0  0  0  0
   -1.2500    3.2580    0.0430 N   0  0  0  0  0  0  0  0  0  0  0  0
   -0.0950    4.0180    0.0270 C   0  0  0  0  0  0  0  0  0  0  0  0
   -0.1610    5.2390    0.0260 O   0  0  0  0  0  0  0  0  0  0  0  0
    1.1540    3.3820    0.0060 C   0  0  0  0  0  0  0  0  0  0  0  0
    2.3570    4.1070   -0.0100 C   0  0  0  0  0  3  0  0  0  0  0  0
    3.5730    3.4270   -0.0320 C   0  0  0  0  0  3  0  0  0  0  0  0
    3.5810    2.0310   -0.0390 C   0  0  0  0  0  2  0  0  0  0  0  0
    2.4100    1.3390   -0.0240 N   0  0  0  0  0  0  0  0  0  0  0  0
    2.4330    0.3200   -0.0300 H   0  0  0  0  0  0  0  0  0  0  0  0
    1.2060    1.9770   -0.0020 C   0  0  0  0  0  0  0  0  0  0  0  0
   -2.0210    1.4020    0.0410 H   0  0  0  0  0  0  0  0  0  0  0  0
   -2.5680    3.9010    0.0450 C   0  0  0  0  0  2  0  0  0  0  0  0
   -3.0480    4.1170   -1.3870 C   0  0  0  0  0  2  0  0  0  0  0  0
   -3.2350    2.8730   -2.0040 O   0  0  0  0  0  0  0  0  0  0  0  0
   -3.5560    3.0600   -2.9230 H   0  0  0  0  0  0  0  0  0  0  0  0
  1  2  2  0  0  0  0
  2  3  1  0  0  0  0
  3 14  1  0  0  0  0
  3  4  1  0  0  0  0
  4 15  1  0  0  0  0
  5  4  1  0  0  0  0
  6  5  2  0  0  0  0
  7  5  1  0  0  0  0
  8  7  1  0  0  0  0
  9  8  2  0  0  0  0
 10  9  1  0  0  0  0
 10 11  1  0  0  0  0
 11 13  1  0  0  0  0
 12 11  1  0  0  0  0
 13  7  2  0  0  0  0
 13  2  1  0  0  0  0
 16 15  1  0  0  0  0
 17 16  1  0  0  0  0
 18 17  1  0  0  0  0
M  END
>  <REMARK>
  3 active torsions:
  status: ('A' for Active; 'I' for Inactive)
    1  A    between atoms: N_4  and  C_5 
    2  A    between atoms: C_5  and  C_6 
    3  A    between atoms: C_6  and  O_7 

>  <TORSDO>
F 3

$$$$
C:\Users\siddh\.mgltools\PyRx\Ligands\ZINC000013638179_uff_E=1362.13.pdbqt
 OpenBabel04182118313D

 20 21  0  0  1  0  0  0  0  0999 V2000
    4.1090    1.8650   -0.0200 C   0  0  1  0  0  3  0  0  0  0  0  0
    3.9560    3.2160   -0.0090 N   0  0  0  0  0  0  0  0  0  0  0  0
    3.0170    3.6140    0.0080 H   0  0  0  0  0  0  0  0  0  0  0  0
    5.0150    4.0320   -0.0190 N   0  0  0  0  0  0  0  0  0  0  0  0
    6.2900    3.5240   -0.0400 C   0  0  0  0  0  0  0  0  0  0  0  0
    7.2510    4.2730   -0.0470 O   0  0  0  0  0  0  0  0  0  0  0  0
    6.4790    2.1720   -0.0540 N   0  0  0  0  0  0  0  0  0  0  0  0
    5.4030    1.3300   -0.0440 C   0  0  0  0  0  0  0  0  0  0  0  0
    5.5780    0.1250   -0.0550 O   0  0  0  0  0  0  0  0  0  0  0  0
    4.8660    5.0650   -0.0090 H   0  0  0  0  0  0  0  0  0  0  0  0
    7.3920    1.8030   -0.0700 H   0  0  0  0  0  0  0  0  0  0  0  0
    2.6860    0.7540    0.0060 S   0  0  0  0  0  0  0  0  0  0  0  0
    1.2840    1.9460    0.0240 C   0  0  0  0  0  2  0  0  0  0  0  0
   -0.0300    1.1850    0.0110 C   0  0  0  0  0  0  0  0  0  0  0  0
   -0.0160   -0.0390    0.0210 O   0  0  0  0  0  0  0  0  0  0  0  0
   -1.2220    1.8470   -0.0450 N   0  0  0  0  0  0  0  0  0  0  0  0
   -1.2260    2.8790   -0.0670 H   0  0  0  0  0  0  0  0  0  0  0  0
   -2.4810    1.1110   -0.1340 C   0  0  0  0  0  3  0  0  0  0  0  0
   -3.7520    1.8990   -0.4150 C   0  0  0  0  0  2  0  0  0  0  0  0
   -3.3880    1.5270    1.0150 C   0  0  0  0  0  2  0  0  0  0  0  0
  1  2  1  0  0  0  0
  1 12  1  1  0  0  0
  2  3  1  0  0  0  0
  4  2  1  0  0  0  0
  4 10  1  0  0  0  0
  5  4  1  0  0  0  0
  6  5  2  0  0  0  0
  7  8  1  0  0  0  0
  7  5  1  0  0  0  0
  8  1  1  0  0  0  0
  9  8  2  0  0  0  0
 11  7  1  0  0  0  0
 12 13  1  0  0  0  0
 14 15  2  0  0  0  0
 14 13  1  0  0  0  0
 16 14  1  0  0  0  0
 17 16  1  0  0  0  0
 18 16  1  0  0  0  0
 18 20  1  0  0  0  0
 19 18  1  0  0  0  0
 19 20  1  0  0  0  0
M  END
>  <REMARK>
  4 active torsions:
  status: ('A' for Active; 'I' for Inactive)
    1  A    between atoms: C_2  and  C_3 
       I    between atoms: C_2  and  N_14 
    2  A    between atoms: C_3  and  S_4 
    3  A    between atoms: S_4  and  C_5 
    4  A    between atoms: N_14  and  C_15 

>  <TORSDO>
F 4

$$$$
C:\Users\siddh\.mgltools\PyRx\Ligands\ZINC000013555032_uff_E=81.97.pdbqt
 OpenBabel04182118313D

 19 19  0  0  1  0  0  0  0  0999 V2000
    2.0620   -4.6620   -3.5580 C   0  0  1  0  0  3  0  0  0  0  0  0
    2.6250   -3.9300   -4.5600 N   0  0  0  0  0  0  0  0  0  0  0  0
    2.5900   -2.9120   -4.5130 H   0  0  0  0  0  0  0  0  0  0  0  0
    3.2190   -4.5150   -5.6010 N   0  0  0  0  0  0  0  0  0  0  0  0
    3.2800   -5.8820   -5.6900 C   0  0  0  0  0  0  0  0  0  0  0  0
    3.8240   -6.4110   -6.6430 O   0  0  0  0  0  0  0  0  0  0  0  0
    2.7270   -6.6500   -4.7040 N   0  0  0  0  0  0  0  0  0  0  0  0
    2.1160   -6.0590   -3.6330 C   0  0  0  0  0  0  0  0  0  0  0  0
    1.6260   -6.7510   -2.7590 O   0  0  0  0  0  0  0  0  0  0  0  0
    3.6400   -3.9210   -6.3500 H   0  0  0  0  0  0  0  0  0  0  0  0
    2.7700   -7.6310   -4.7650 H   0  0  0  0  0  0  0  0  0  0  0  0
    1.4340   -4.0080   -2.4590 N   0  0  0  0  0  0  0  0  0  0  0  0
    1.0110   -4.5660   -1.7020 H   0  0  0  0  0  0  0  0  0  0  0  0
    1.3850   -2.5640   -2.3980 C   0  0  0  0  0  2  0  0  0  0  0  0
    0.6660   -2.0680   -1.1350 C   0  0  0  0  0  2  0  0  0  0  0  0
    0.6240   -0.5610   -1.0900 C   0  0  0  0  0  0  0  0  0  0  0  0
    1.1270    0.0980   -1.9920 O   0  0  0  0  0  0  0  0  0  0  0  0
    0.0270    0.0640   -0.0440 O   0  0  0  0  0  0  0  0  0  0  0  0
   -0.0360    1.4400    0.0430 C   0  0  0  0  0  1  0  0  0  0  0  0
  1 12  1  1  0  0  0
  2  3  1  0  0  0  0
  2  1  1  0  0  0  0
  4  2  1  0  0  0  0
  5  4  1  0  0  0  0
  5  7  1  0  0  0  0
  6  5  2  0  0  0  0
  7  8  1  0  0  0  0
  8  1  1  0  0  0  0
  8  9  2  0  0  0  0
 10  4  1  0  0  0  0
 11  7  1  0  0  0  0
 12 14  1  0  0  0  0
 12 13  1  0  0  0  0
 14 15  1  0  0  0  0
 15 16  1  0  0  0  0
 16 18  1  0  0  0  0
 17 16  2  0  0  0  0
 18 19  1  0  0  0  0
M  END
>  <REMARK>
  5 active torsions:
  status: ('A' for Active; 'I' for Inactive)
    1  A    between atoms: O_2  and  C_3 
    2  A    between atoms: C_3  and  C_5 
    3  A    between atoms: C_5  and  C_6 
    4  A    between atoms: C_6  and  N_7 
    5  A    between atoms: N_7  and  C_8 

>  <TORSDO>
F 5

$$$$
C:\Users\siddh\.mgltools\PyRx\Ligands\ZINC000013554952_uff_E=813.14.pdbqt
 OpenBabel04182118313D

 15 16  0  0  1  0  0  0  0  0999 V2000
    0.0090    1.4420    0.0060 C   0  0  0  0  0  1  0  0  0  0  0  0
   -0.0200   -0.0510   -0.0020 C   0  0  0  0  0  0  0  0  0  0  0  0
   -1.1560   -0.8430    0.0060 C   0  0  0  0  0  3  0  0  0  0  0  0
   -0.6690   -2.1280    0.0010 C   0  0  0  0  0  0  0  0  0  0  0  0
   -1.3420   -3.1460    0.0040 O   0  0  0  0  0  0  0  0  0  0  0  0
    0.6870   -2.1010   -0.0110 N   0  0  0  0  0  0  0  0  0  0  0  0
    1.0820   -0.8330   -0.0140 N   0  0  0  0  0  0  0  0  0  0  0  0
    2.0150   -0.5180   -0.0240 H   0  0  0  0  0  0  0  0  0  0  0  0
    1.6060   -3.2420   -0.0180 C   0  0  1  0  0  3  0  0  0  0  0  0
    2.4810   -3.2390   -1.2830 C   0  0  0  0  0  2  0  0  0  0  0  0
    3.7970   -4.3370   -0.7730 S   0  0  0  0  0  0  0  0  0  0  0  0
    3.6130   -4.3200    1.0120 C   0  0  0  0  0  2  0  0  0  0  0  0
    5.1860   -3.8870   -1.2520 O   0  0  0  0  0  0  0  0  0  0  0  0
    3.6160   -5.7510   -1.3470 O   0  0  0  0  0  0  0  0  0  0  0  0
    2.5670   -3.2080    1.2000 C   0  0  0  0  0  2  0  0  0  0  0  0
  2  1  1  0  0  0  0
  2  3  2  0  0  0  0
  4  5  2  0  0  0  0
  4  3  1  0  0  0  0
  6  4  1  0  0  0  0
  7  6  1  0  0  0  0
  7  2  1  0  0  0  0
  8  7  1  0  0  0  0
  9 10  1  6  0  0  0
  9  6  1  0  0  0  0
  9 15  1  0  0  0  0
 10 11  1  0  0  0  0
 11 12  1  0  0  0  0
 12 15  1  0  0  0  0
 13 11  2  0  0  0  0
 14 11  2  0  0  0  0
M  END
>  <REMARK>
  1 active torsions:
  status: ('A' for Active; 'I' for Inactive)
    1  A    between atoms: N_6  and  C_7 

>  <TORSDO>
F 1

$$$$
C:\Users\siddh\.mgltools\PyRx\Ligands\ZINC000013521780_uff_E=175.27.pdbqt
 OpenBabel04182118313D

 19 20  0  0  1  0  0  0  0  0999 V2000
    4.3560   -5.0620    3.2780 C   0  0  0  0  0  1  0  0  0  0  0  0
    3.1890   -4.7600    2.3970 C   0  0  1  0  0  3  0  0  0  0  0  0
    3.1300   -5.3210    1.1640 N   0  0  0  0  0  0  0  0  0  0  0  0
    3.8830   -5.9370    0.8560 H   0  0  0  0  0  0  0  0  0  0  0  0
    2.1060   -5.0820    0.3510 N   0  0  0  0  0  0  0  0  0  0  0  0
    2.0880   -5.5130   -0.5730 H   0  0  0  0  0  0  0  0  0  0  0  0
    1.0820   -4.2730    0.7290 C   0  0  2  0  0  3  0  0  0  0  0  0
    0.0260   -4.0180   -0.1670 N   0  0  0  0  0  0  0  0  0  0  0  0
    1.0970   -3.6920    1.9550 N   0  0  0  0  0  0  0  0  0  0  0  0
    2.1410   -3.9220    2.8070 C   0  0  0  0  0  0  0  0  0  0  0  0
    2.1520   -3.3960    3.9060 O   0  0  0  0  0  0  0  0  0  0  0  0
   -0.7540   -3.3990    0.1050 H   0  0  0  0  0  0  0  0  0  0  0  0
    0.3570   -3.1050    2.2310 H   0  0  0  0  0  0  0  0  0  0  0  0
    0.0900   -4.5640   -1.4440 N   0  0  0  0  0  0  0  0  0  0  0  0
   -1.1010   -5.3740   -1.7080 C   0  0  0  0  0  2  0  0  0  0  0  0
   -0.9680   -5.9580   -3.1180 C   0  0  0  0  0  2  0  0  0  0  0  0
   -0.8460   -4.9230   -4.0810 O   0  0  0  0  0  0  0  0  0  0  0  0
    0.3100   -4.1420   -3.8170 C   0  0  0  0  0  2  0  0  0  0  0  0
    0.2170   -3.4940   -2.4340 C   0  0  0  0  0  2  0  0  0  0  0  0
  2 10  1  0  0  0  0
  2  1  1  1  0  0  0
  3  2  1  0  0  0  0
  4  3  1  0  0  0  0
  5  7  1  0  0  0  0
  5  3  1  0  0  0  0
  6  5  1  0  0  0  0
  7  8  1  6  0  0  0
  7  9  1  0  0  0  0
  8 12  1  0  0  0  0
  9 13  1  0  0  0  0
  9 10  1  0  0  0  0
 10 11  2  0  0  0  0
 14  8  1  0  0  0  0
 15 14  1  0  0  0  0
 16 15  1  0  0  0  0
 17 18  1  0  0  0  0
 17 16  1  0  0  0  0
 18 19  1  0  0  0  0
 19 14  1  0  0  0  0
M  END
>  <REMARK>
  1 active torsions:
  status: ('A' for Active; 'I' for Inactive)
       I    between atoms: C_7  and  N_8 
    1  A    between atoms: N_8  and  N_9 

>  <TORSDO>
F 1

$$$$
C:\Users\siddh\.mgltools\PyRx\Ligands\ZINC000013517623_uff_E=362.99.pdbqt
 OpenBabel04182118313D

 21 22  0  0  1  0  0  0  0  0999 V2000
   -0.0170    1.4370    0.0210 C   0  0  0  0  0  1  0  0  0  0  0  0
    0.0010   -0.0180    0.0080 N   0  0  0  0  0  0  0  0  0  0  0  0
    0.0100   -0.7530   -1.1010 N   0  0  0  0  0  0  0  0  0  0  0  0
    0.0030   -0.3960   -2.0560 H   0  0  0  0  0  0  0  0  0  0  0  0
    0.0290   -2.0610   -0.7400 C   0  0  0  0  0  2  0  0  0  0  0  0
    0.0350   -2.1260    0.6410 C   0  0  0  0  0  0  0  0  0  0  0  0
    0.0530   -3.1610    1.5650 C   0  0  2  0  0  3  0  0  0  0  0  0
    0.0540   -2.8310    2.8930 N   0  0  0  0  0  0  0  0  0  0  0  0
    0.0670   -3.5730    3.5930 H   0  0  0  0  0  0  0  0  0  0  0  0
    0.0380   -1.5220    3.3010 C   0  0  0  0  0  2  0  0  0  0  0  0
    0.0200   -0.5090    2.3800 N   0  0  0  0  0  0  0  0  0  0  0  0
    0.0070    0.4680    2.6740 H   0  0  0  0  0  0  0  0  0  0  0  0
    0.0180   -0.8430    1.0660 C   0  0  0  0  0  0  0  0  0  0  0  0
    0.0700   -4.5150    1.1490 N   0  0  0  0  0  0  0  0  0  0  0  0
    0.0690   -4.7200    0.1400 H   0  0  0  0  0  0  0  0  0  0  0  0
    0.0890   -5.5910    2.1210 C   0  0  0  0  0  2  0  0  0  0  0  0
    0.1060   -6.9490    1.4710 C   0  0  0  0  0  3  0  0  0  0  0  0
    0.1030   -7.0830    0.1300 O   0  0  0  0  0  0  0  0  0  0  0  0
    0.1130   -7.9370   -0.2550 H   0  0  0  0  0  0  0  0  0  0  0  0
    0.1250   -8.0500    2.2430 O   0  0  0  0  0  0  0  0  0  0  0  0
    0.1270   -7.9680    3.1770 H   0  0  0  0  0  0  0  0  0  0  0  0
  2  1  1  0  0  0  0
  2 13  1  0  0  0  0
  3  5  1  0  0  0  0
  3  2  1  0  0  0  0
  4  3  1  0  0  0  0
  5  6  1  0  0  0  0
  6 13  2  0  0  0  0
  6  7  1  0  0  0  0
  7 14  1  6  0  0  0
  7  8  1  0  0  0  0
  8 10  1  0  0  0  0
  8  9  1  0  0  0  0
 11 12  1  0  0  0  0
 11 10  1  0  0  0  0
 13 11  1  0  0  0  0
 14 16  1  0  0  0  0
 15 14  1  0  0  0  0
 17 16  1  0  0  0  0
 17 20  1  0  0  0  0
 18 17  1  0  0  0  0
 19 18  1  0  0  0  0
 20 21  1  0  0  0  0
M  END
>  <REMARK>
  5 active torsions:
  status: ('A' for Active; 'I' for Inactive)
    1  A    between atoms: C_7  and  N_8 
    2  A    between atoms: N_8  and  C_9 
    3  A    between atoms: C_9  and  C_10 
    4  A    between atoms: C_10  and  O_11 
    5  A    between atoms: C_10  and  O_12 

>  <TORSDO>
F 5

$$$$
C:\Users\siddh\.mgltools\PyRx\Ligands\ZINC000013470885_uff_E=336.76.pdbqt
 OpenBabel04182118313D

 22 23  0  0  1  0  0  0  0  0999 V2000
    2.1330   -0.0060   -1.2500 N   0  0  0  0  0  0  0  0  0  0  0  0
    3.0800   -0.2070   -0.3140 C   0  0  0  0  0  0  0  0  0  0  0  0
    2.9100   -0.8680    0.6990 O   0  0  0  0  0  0  0  0  0  0  0  0
    4.2420    0.3820   -0.6010 N   0  0  0  0  0  0  0  0  0  0  0  0
    4.1460    1.1000   -1.8490 C   0  0  1  0  0  3  0  0  0  0  0  0
    4.9340    0.4670   -2.8780 N   0  0  0  0  0  0  0  0  0  0  0  0
    4.1350   -0.0760   -3.7990 C   0  0  0  0  0  0  0  0  0  0  0  0
    4.5530   -0.6800   -4.7750 O   0  0  0  0  0  0  0  0  0  0  0  0
    2.8360    0.0820   -3.5360 N   0  0  0  0  0  0  0  0  0  0  0  0
    2.6620    0.8280   -2.3110 C   0  0  1  0  0  3  0  0  0  0  0  0
    5.0900    0.3230   -0.0180 H   0  0  0  0  0  0  0  0  0  0  0  0
    5.9640    0.4230   -2.8920 H   0  0  0  0  0  0  0  0  0  0  0  0
    2.0700   -0.2900   -4.1170 H   0  0  0  0  0  0  0  0  0  0  0  0
    0.7630   -0.5180   -1.2280 C   0  0  2  0  0  3  0  0  0  0  0  0
   -0.0140   -0.0060    0.0200 C   0  0  0  0  0  3  0  0  0  0  0  0
   -0.0240    1.5320    0.0520 C   0  0  0  0  0  1  0  0  0  0  0  0
   -1.4650   -0.5160    0.0270 C   0  0  0  0  0  1  0  0  0  0  0  0
    0.7560   -2.0280   -1.3350 C   0  0  0  0  0  3  0  0  0  0  0  0
    0.0880   -2.6210   -2.3430 O   0  0  0  0  0  0  0  0  0  0  0  0
    0.0810   -3.5560   -2.4140 H   0  0  0  0  0  0  0  0  0  0  0  0
    1.3910   -2.7910   -0.4250 O   0  0  0  0  0  0  0  0  0  0  0  0
    1.8580   -2.3880    0.2800 H   0  0  0  0  0  0  0  0  0  0  0  0
  1 14  1  0  0  0  0
  1  2  1  0  0  0  0
  2  3  2  0  0  0  0
  4  2  1  0  0  0  0
  4 11  1  0  0  0  0
  5  6  1  6  0  0  0
  5  4  1  0  0  0  0
  7  9  1  0  0  0  0
  7  6  1  0  0  0  0
  8  7  2  0  0  0  0
 10  9  1  6  0  0  0
 10  5  1  0  0  0  0
 10  1  1  0  0  0  0
 12  6  1  0  0  0  0
 13  9  1  0  0  0  0
 14 18  1  1  0  0  0
 14 15  1  0  0  0  0
 15 17  1  0  0  0  0
 15 16  1  0  0  0  0
 18 21  1  0  0  0  0
 19 18  1  0  0  0  0
 20 19  1  0  0  0  0
 21 22  1  0  0  0  0
M  END
>  <REMARK>
  5 active torsions:
  status: ('A' for Active; 'I' for Inactive)
    1  A    between atoms: C_2  and  C_4 
    2  A    between atoms: C_4  and  C_5 
    3  A    between atoms: C_4  and  N_8 
    4  A    between atoms: C_5  and  O_6 
    5  A    between atoms: C_5  and  O_7 

>  <TORSDO>
F 5

$$$$
C:\Users\siddh\.mgltools\PyRx\Ligands\ZINC000013465079_uff_E=739.29.pdbqt
 OpenBabel04182118313D

 17 19  0  0  1  0  0  0  0  0999 V2000
   -0.0350    1.4450    0.0180 C   0  0  0  0  0  1  0  0  0  0  0  0
   -0.0090   -0.0030   -0.0010 N   0  0  0  0  0  0  0  0  0  0  0  0
   -1.1980   -0.8380    0.0260 C   0  0  0  0  0  2  0  0  0  0  0  0
   -0.5470   -2.1230    0.5740 C   0  0  1  0  0  0  0  0  0  0  0  0
   -0.3380   -2.0230    2.0700 C   0  0  0  0  0  2  0  0  0  0  0  0
    0.0390   -3.2070    2.4380 C   0  0  0  0  0  2  0  0  0  0  0  0
    0.1010   -4.0010    1.1810 C   0  0  1  0  0  3  0  0  0  0  0  0
   -1.0100   -3.4490    0.4560 O   0  0  0  0  0  0  0  0  0  0  0  0
    1.3660   -3.4650    0.4260 C   0  0  2  0  0  3  0  0  0  0  0  0
    0.7730   -2.1950   -0.1960 C   0  0  2  0  0  3  0  0  0  0  0  0
    1.1140   -0.7590   -0.0470 C   0  0  0  0  0  0  0  0  0  0  0  0
    2.2460   -0.3050   -0.0480 O   0  0  0  0  0  0  0  0  0  0  0  0
    1.8560   -4.3790   -0.6690 C   0  0  0  0  0  3  0  0  0  0  0  0
    1.2810   -5.5800   -0.8770 O   0  0  0  0  0  0  0  0  0  0  0  0
    1.5950   -6.1380   -1.5610 H   0  0  0  0  0  0  0  0  0  0  0  0
    2.8790   -3.9890   -1.4540 O   0  0  0  0  0  0  0  0  0  0  0  0
    3.2840   -3.1560   -1.3160 H   0  0  0  0  0  0  0  0  0  0  0  0
  2  1  1  0  0  0  0
  2  3  1  0  0  0  0
  4  3  1  6  0  0  0
  4  5  1  0  0  0  0
  5  6  1  0  0  0  0
  7  6  1  1  0  0  0
  8  4  1  0  0  0  0
  8  7  1  0  0  0  0
  9 13  1  6  0  0  0
  9  7  1  0  0  0  0
 10 11  1  1  0  0  0
 10  9  1  0  0  0  0
 10  4  1  0  0  0  0
 11  2  1  0  0  0  0
 12 11  2  0  0  0  0
 14 13  1  0  0  0  0
 15 14  1  0  0  0  0
 16 17  1  0  0  0  0
 16 13  1  0  0  0  0
M  END
>  <REMARK>
  3 active torsions:
  status: ('A' for Active; 'I' for Inactive)
    1  A    between atoms: C_9  and  C_10 
    2  A    between atoms: C_10  and  O_11 
    3  A    between atoms: C_10  and  O_12 

>  <TORSDO>
F 3

$$$$
C:\Users\siddh\.mgltools\PyRx\Ligands\ZINC000012956768_uff_E=317.06.pdbqt
 OpenBabel04182118313D

 21 22  0  0  0  0  0  0  0  0999 V2000
   -1.6360    2.4200   -1.0520 C   0  0  0  0  0  0  0  0  0  0  0  0
   -2.8840    1.7650   -1.0280 C   0  0  0  0  0  3  0  0  0  0  0  0
   -3.7510    1.9060    0.0540 C   0  0  0  0  0  3  0  0  0  0  0  0
   -3.3910    2.6920    1.1420 C   0  0  0  0  0  3  0  0  0  0  0  0
   -2.1640    3.3510    1.1520 C   0  0  0  0  0  3  0  0  0  0  0  0
   -1.2730    3.2400    0.0620 C   0  0  0  0  0  0  0  0  0  0  0  0
    0.0200    3.9830    0.1140 C   0  0  0  0  0  0  0  0  0  0  0  0
    1.0510    3.3590   -0.1060 O   0  0  0  0  0  0  0  0  0  0  0  0
    0.0860    5.3360    0.3720 N   0  0  0  0  0  0  0  0  0  0  0  0
   -1.1060    6.1650    0.5630 C   0  0  0  0  0  2  0  0  0  0  0  0
    1.3520    6.0390    0.3320 C   0  0  0  0  0  2  0  0  0  0  0  0
   -1.0210    7.4440   -0.2320 C   0  0  0  0  0  0  0  0  0  0  0  0
    0.1050    7.7860   -0.9160 N   0  0  0  0  0  0  0  0  0  0  0  0
   -1.9960    8.1810   -0.2690 O   0  0  0  0  0  0  0  0  0  0  0  0
    1.3240    6.9950   -0.8700 C   0  0  0  0  0  2  0  0  0  0  0  0
    0.0880    8.6230   -1.5180 H   0  0  0  0  0  0  0  0  0  0  0  0
   -0.7940    2.2650   -2.2840 C   0  0  0  0  0  3  0  0  0  0  0  0
   -1.1840    1.4230   -3.2600 O   0  0  0  0  0  0  0  0  0  0  0  0
   -1.5210    1.6630   -4.1010 H   0  0  0  0  0  0  0  0  0  0  0  0
    0.3230    2.9890   -2.4790 O   0  0  0  0  0  0  0  0  0  0  0  0
    0.6190    3.5830   -1.8170 H   0  0  0  0  0  0  0  0  0  0  0  0
  1  2  2  0  0  0  0
  1  6  1  0  0  0  0
  2  3  1  0  0  0  0
  3  4  2  0  0  0  0
  4  5  1  0  0  0  0
  6  7  1  0  0  0  0
  6  5  2  0  0  0  0
  7  9  1  0  0  0  0
  8  7  2  0  0  0  0
  9 10  1  0  0  0  0
 11  9  1  0  0  0  0
 12 10  1  0  0  0  0
 13 15  1  0  0  0  0
 13 12  1  0  0  0  0
 14 12  2  0  0  0  0
 15 11  1  0  0  0  0
 16 13  1  0  0  0  0
 17  1  1  0  0  0  0
 18 17  1  0  0  0  0
 19 18  1  0  0  0  0
 20 17  1  0  0  0  0
 20 21  1  0  0  0  0
M  END
>  <REMARK>
  4 active torsions:
  status: ('A' for Active; 'I' for Inactive)
    1  A    between atoms: O_1  and  C_2 
    2  A    between atoms: C_2  and  O_3 
    3  A    between atoms: C_2  and  C_4 
    4  A    between atoms: C_9  and  C_10 
       I    between atoms: C_10  and  N_12 

>  <TORSDO>
F 4

$$$$
C:\Users\siddh\.mgltools\PyRx\Ligands\ZINC000012944238_uff_E=178.51.pdbqt
 OpenBabel04182118313D

 20 21  0  0  0  0  0  0  0  0999 V2000
    1.3860   -3.9510   -2.3580 N   0  0  0  0  0  0  0  0  0  0  0  0
    2.3880   -4.5960   -1.7440 N   0  0  0  0  0  0  0  0  0  0  0  0
    2.4110   -5.9640   -1.6340 C   0  0  0  0  0  0  0  0  0  0  0  0
    3.3420   -6.5070   -1.0610 O   0  0  0  0  0  0  0  0  0  0  0  0
    1.3630   -6.7250   -2.1730 C   0  0  0  0  0  0  0  0  0  0  0  0
    1.3460   -8.1320   -2.0740 C   0  0  0  0  0  3  0  0  0  0  0  0
    0.2870   -8.8630   -2.6180 C   0  0  0  0  0  3  0  0  0  0  0  0
   -0.7600   -8.2050   -3.2640 C   0  0  0  0  0  3  0  0  0  0  0  0
   -0.7560   -6.8120   -3.3690 C   0  0  0  0  0  3  0  0  0  0  0  0
    0.3050   -6.0600   -2.8240 C   0  0  0  0  0  0  0  0  0  0  0  0
    0.3290   -4.6560   -2.9080 C   0  0  0  0  0  0  0  0  0  0  0  0
   -0.5850   -4.0610   -3.4590 O   0  0  0  0  0  0  0  0  0  0  0  0
    3.1750   -4.0490   -1.3250 H   0  0  0  0  0  0  0  0  0  0  0  0
    1.4050   -2.4750   -2.4020 C   0  0  0  0  0  2  0  0  0  0  0  0
    0.7040   -1.9000   -1.1960 C   0  0  0  0  0  0  0  0  0  0  0  0
    0.6050   -0.5590   -1.0350 N   0  0  0  0  0  0  0  0  0  0  0  0
    0.9920    0.0480   -1.7070 H   0  0  0  0  0  0  0  0  0  0  0  0
    0.2220   -2.6470   -0.3550 O   0  0  0  0  0  0  0  0  0  0  0  0
   -0.0210   -0.0560    0.0450 O   0  0  0  0  0  0  0  0  0  0  0  0
    0.0280    1.3400   -0.0680 C   0  0  0  0  0  1  0  0  0  0  0  0
  1  2  1  0  0  0  0
  2  3  1  0  0  0  0
  2 13  1  0  0  0  0
  3  4  2  0  0  0  0
  5  6  1  0  0  0  0
  5  3  1  0  0  0  0
  7  6  2  0  0  0  0
  8  7  1  0  0  0  0
  9  8  2  0  0  0  0
  9 10  1  0  0  0  0
 10  5  2  0  0  0  0
 11 10  1  0  0  0  0
 11  1  1  0  0  0  0
 12 11  2  0  0  0  0
 14  1  1  0  0  0  0
 14 15  1  0  0  0  0
 15 16  1  0  0  0  0
 15 18  2  0  0  0  0
 16 19  1  0  0  0  0
 17 16  1  0  0  0  0
 20 19  1  0  0  0  0
M  END
>  <REMARK>
  3 active torsions:
  status: ('A' for Active; 'I' for Inactive)
    1  A    between atoms: O_2  and  N_3 
       I    between atoms: N_3  and  C_4 
    2  A    between atoms: C_4  and  C_6 
    3  A    between atoms: C_6  and  N_7 

>  <TORSDO>
F 3

$$$$
C:\Users\siddh\.mgltools\PyRx\Ligands\ZINC000012896294_uff_E=149.56.pdbqt
 OpenBabel04182118313D

 20 21  0  0  0  0  0  0  0  0999 V2000
   -0.0160    1.4780    0.0220 C   0  0  0  0  0  1  0  0  0  0  0  0
   -0.0010    0.0080   -0.0090 N   0  0  0  0  0  0  0  0  0  0  0  0
    0.0080   -0.6530   -1.2220 C   0  0  0  0  0  0  0  0  0  0  0  0
    0.0010   -0.0220   -2.2680 O   0  0  0  0  0  0  0  0  0  0  0  0
    0.0260   -2.0210   -1.2650 N   0  0  0  0  0  0  0  0  0  0  0  0
    0.0400   -2.7650   -0.1150 C   0  0  0  0  0  0  0  0  0  0  0  0
    0.0560   -3.9830   -0.1840 O   0  0  0  0  0  0  0  0  0  0  0  0
    0.0370   -2.1190    1.1280 C   0  0  0  0  0  0  0  0  0  0  0  0
    0.0520   -2.8280    2.3420 C   0  0  0  0  0  3  0  0  0  0  0  0
    0.0480   -2.1330    3.5510 C   0  0  0  0  0  3  0  0  0  0  0  0
    0.0300   -0.7330    3.5420 C   0  0  0  0  0  0  0  0  0  0  0  0
    0.0170   -0.0670    2.3590 N   0  0  0  0  0  0  0  0  0  0  0  0
    0.0060    0.9530    2.3700 H   0  0  0  0  0  0  0  0  0  0  0  0
    0.0170   -0.7100    1.1590 C   0  0  0  0  0  0  0  0  0  0  0  0
    0.0300   -2.5020   -2.1930 H   0  0  0  0  0  0  0  0  0  0  0  0
    0.0230    0.0340    4.7970 C   0  0  0  0  0  0  0  0  0  0  0  0
    0.0350   -0.5990    5.9860 O   0  0  0  0  0  0  0  0  0  0  0  0
    0.0310   -0.1020    6.7810 H   0  0  0  0  0  0  0  0  0  0  0  0
    0.0040    1.3800    4.7600 O   0  0  0  0  0  0  0  0  0  0  0  0
   -0.0050    1.8260    3.9360 H   0  0  0  0  0  0  0  0  0  0  0  0
  2  1  1  0  0  0  0
  2 14  1  0  0  0  0
  3  2  1  0  0  0  0
  4  3  2  0  0  0  0
  5  3  1  0  0  0  0
  5  6  1  0  0  0  0
  6  8  1  0  0  0  0
  7  6  2  0  0  0  0
  8 14  2  0  0  0  0
  8  9  1  0  0  0  0
  9 10  2  0  0  0  0
 11 10  1  0  0  0  0
 11 16  2  0  0  0  0
 12 13  1  0  0  0  0
 12 11  1  0  0  0  0
 14 12  1  0  0  0  0
 15  5  1  0  0  0  0
 16 17  1  0  0  0  0
 17 18  1  0  0  0  0
 19 16  1  0  0  0  0
 20 19  1  0  0  0  0
M  END
>  <REMARK>
  3 active torsions:
  status: ('A' for Active; 'I' for Inactive)
    1  A    between atoms: C_11  and  C_12 
    2  A    between atoms: C_12  and  O_13 
    3  A    between atoms: C_12  and  O_14 

>  <TORSDO>
F 3

$$$$
C:\Users\siddh\.mgltools\PyRx\Ligands\ZINC000012778469_uff_E=362.79.pdbqt
 OpenBabel04182118313D

 21 22  0  0  1  0  0  0  0  0999 V2000
   -0.0160    1.4140    0.0090 C   0  0  0  0  0  1  0  0  0  0  0  0
    0.0030   -0.0450   -0.0150 N   0  0  0  0  0  0  0  0  0  0  0  0
    0.0100   -0.7790   -1.1240 N   0  0  0  0  0  0  0  0  0  0  0  0
    0.0030   -0.4210   -2.0790 H   0  0  0  0  0  0  0  0  0  0  0  0
    0.0270   -2.0890   -0.7620 C   0  0  0  0  0  2  0  0  0  0  0  0
    0.0340   -2.1550    0.6170 C   0  0  0  0  0  0  0  0  0  0  0  0
    0.0190   -0.8730    1.0390 C   0  0  0  0  0  0  0  0  0  0  0  0
    0.0220   -0.5370    2.3450 N   0  0  0  0  0  0  0  0  0  0  0  0
    0.0120    0.4420    2.6310 H   0  0  0  0  0  0  0  0  0  0  0  0
    0.0380   -1.5390    3.2800 C   0  0  2  0  0  3  0  0  0  0  0  0
    0.0510   -2.8570    2.8830 N   0  0  0  0  0  0  0  0  0  0  0  0
    0.0500   -3.1880    1.5430 C   0  0  0  0  0  0  0  0  0  0  0  0
    0.0620   -4.3540    1.1890 O   0  0  0  0  0  0  0  0  0  0  0  0
    0.0630   -3.6150    3.6040 H   0  0  0  0  0  0  0  0  0  0  0  0
    0.0410   -1.2020    4.7410 C   0  0  0  0  0  2  0  0  0  0  0  0
    0.0270    0.3130    4.9740 C   0  0  0  0  0  2  0  0  0  0  0  0
    0.0300    0.6670    6.4300 C   0  0  0  0  0  3  0  0  0  0  0  0
    0.0420   -0.2920    7.3770 O   0  0  0  0  0  0  0  0  0  0  0  0
    0.0430   -0.0550    8.2840 H   0  0  0  0  0  0  0  0  0  0  0  0
    0.0190    1.9620    6.7950 O   0  0  0  0  0  0  0  0  0  0  0  0
    0.0100    2.6330    6.1410 H   0  0  0  0  0  0  0  0  0  0  0  0
  2  1  1  0  0  0  0
  2  7  1  0  0  0  0
  3  5  1  0  0  0  0
  3  2  1  0  0  0  0
  4  3  1  0  0  0  0
  5  6  1  0  0  0  0
  6  7  2  0  0  0  0
  6 12  1  0  0  0  0
  7  8  1  0  0  0  0
  8  9  1  0  0  0  0
  8 10  1  0  0  0  0
 10 15  1  1  0  0  0
 11 10  1  0  0  0  0
 11 14  1  0  0  0  0
 12 11  1  0  0  0  0
 13 12  2  0  0  0  0
 15 16  1  0  0  0  0
 16 17  1  0  0  0  0
 17 20  1  0  0  0  0
 17 18  1  0  0  0  0
 18 19  1  0  0  0  0
 21 20  1  0  0  0  0
M  END
>  <REMARK>
  5 active torsions:
  status: ('A' for Active; 'I' for Inactive)
    1  A    between atoms: C_10  and  C_11 
    2  A    between atoms: C_11  and  C_12 
    3  A    between atoms: C_12  and  C_13 
    4  A    between atoms: C_13  and  O_14 
    5  A    between atoms: C_13  and  O_15 

>  <TORSDO>
F 5

$$$$
C:\Users\siddh\.mgltools\PyRx\Ligands\ZINC000012760855_uff_E=358.28.pdbqt
 OpenBabel04182118313D

 18 19  0  0  1  0  0  0  0  0999 V2000
    0.0790   -0.1260   -0.0060 O   0  0  0  0  0  0  0  0  0  0  0  0
    0.0110    1.2200   -0.0090 C   0  0  0  0  0  3  0  0  0  0  0  0
    0.2100   -1.0540    0.0000 H   0  0  0  0  0  0  0  0  0  0  0  0
    1.1450    1.9450   -0.0040 O   0  0  0  0  0  0  0  0  0  0  0  0
    1.1030    2.8810   -0.0070 H   0  0  0  0  0  0  0  0  0  0  0  0
   -1.3160    1.9180   -0.0150 C   0  0  0  0  0  2  0  0  0  0  0  0
   -2.4070    0.9500   -0.0060 N   0  0  0  0  0  0  0  0  0  0  0  0
   -3.0230    0.4140    1.0710 C   0  0  0  0  0  0  0  0  0  0  0  0
   -4.0080   -0.4290    0.6860 N   0  0  0  0  0  0  0  0  0  0  0  0
   -2.7400    0.6690    2.2310 O   0  0  0  0  0  0  0  0  0  0  0  0
   -3.9620   -0.3850   -0.6610 C   0  0  2  0  0  3  0  0  0  0  0  0
   -4.9320   -1.1760    1.5280 C   0  0  0  0  0  2  0  0  0  0  0  0
   -2.9880    0.4540   -1.0910 N   0  0  0  0  0  0  0  0  0  0  0  0
   -4.8900   -1.1250   -1.5650 C   0  0  0  0  0  2  0  0  0  0  0  0
   -2.7480    0.6630   -2.0600 H   0  0  0  0  0  0  0  0  0  0  0  0
   -6.3370   -0.6740   -1.3410 C   0  0  0  0  0  2  0  0  0  0  0  0
   -6.9740   -1.1890   -0.0380 C   0  0  0  0  0  2  0  0  0  0  0  0
   -6.3650   -0.6990    1.2860 C   0  0  0  0  0  2  0  0  0  0  0  0
  1  3  1  0  0  0  0
  2  1  1  0  0  0  0
  2  4  1  0  0  0  0
  5  4  1  0  0  0  0
  6  2  1  0  0  0  0
  6  7  1  0  0  0  0
  7  8  1  0  0  0  0
  8 10  2  0  0  0  0
  9  8  1  0  0  0  0
  9 12  1  0  0  0  0
 11 14  1  1  0  0  0
 11  9  1  0  0  0  0
 13 11  1  0  0  0  0
 13  7  1  0  0  0  0
 14 16  1  0  0  0  0
 15 13  1  0  0  0  0
 16 17  1  0  0  0  0
 17 18  1  0  0  0  0
 18 12  1  0  0  0  0
M  END
>  <REMARK>
  3 active torsions:
  status: ('A' for Active; 'I' for Inactive)
    1  A    between atoms: C_2  and  O_3 
    2  A    between atoms: C_2  and  C_4 
    3  A    between atoms: C_4  and  N_5 

>  <TORSDO>
F 3

$$$$
C:\Users\siddh\.mgltools\PyRx\Ligands\ZINC000012526557_uff_E=473.90.pdbqt
 OpenBabel04182118313D

 19 19  0  0  0  0  0  0  0  0999 V2000
    0.0610   -0.1450    0.0350 O   0  0  0  0  0  0  0  0  0  0  0  0
    0.0320    1.2030    0.0320 C   0  0  0  0  0  3  0  0  0  0  0  0
    0.1170   -1.0800    0.0410 H   0  0  0  0  0  0  0  0  0  0  0  0
    1.1890    1.8920    0.0450 O   0  0  0  0  0  0  0  0  0  0  0  0
    1.1770    2.8290    0.0430 H   0  0  0  0  0  0  0  0  0  0  0  0
   -1.2700    1.9530   -0.0100 C   0  0  0  0  0  2  0  0  0  0  0  0
   -2.5020    1.0430   -0.0470 C   0  0  0  0  0  2  0  0  0  0  0  0
   -3.7000    1.8640   -0.2290 N   0  0  0  0  0  0  0  0  0  0  0  0
   -3.8140    2.5200    0.5770 H   0  0  0  0  0  0  0  0  0  0  0  0
   -5.1380    0.8380   -0.3290 S   0  0  0  0  0  0  0  0  0  0  0  0
   -6.3090    1.8230   -0.4620 O   0  0  0  0  0  0  0  0  0  0  0  0
   -5.1040    0.2230   -1.7370 O   0  0  0  0  0  0  0  0  0  0  0  0
   -5.4170   -0.3770    0.9590 C   0  0  0  0  0  0  0  0  0  0  0  0
   -6.1580   -0.0440    2.0980 C   0  0  0  0  0  2  0  0  0  0  0  0
   -6.3650   -0.9740    3.0710 N   0  0  0  0  0  0  0  0  0  0  0  0
   -5.8650   -2.2340    2.9680 C   0  0  0  0  0  3  0  0  0  0  0  0
   -6.9070   -0.7190    3.8970 H   0  0  0  0  0  0  0  0  0  0  0  0
   -5.1190   -2.6030    1.8460 C   0  0  0  0  0  3  0  0  0  0  0  0
   -4.8940   -1.6660    0.8360 C   0  0  0  0  0  3  0  0  0  0  0  0
  1  3  1  0  0  0  0
  2  1  1  0  0  0  0
  2  4  1  0  0  0  0
  5  4  1  0  0  0  0
  6  2  1  0  0  0  0
  7  6  1  0  0  0  0
  8  7  1  0  0  0  0
  8  9  1  0  0  0  0
 10  8  1  0  0  0  0
 10 13  1  0  0  0  0
 11 10  2  0  0  0  0
 12 10  2  0  0  0  0
 13 14  1  0  0  0  0
 14 15  1  0  0  0  0
 15 17  1  0  0  0  0
 16 15  1  0  0  0  0
 18 16  2  0  0  0  0
 19 13  2  0  0  0  0
 19 18  1  0  0  0  0
M  END
>  <REMARK>
  6 active torsions:
  status: ('A' for Active; 'I' for Inactive)
    1  A    between atoms: C_2  and  O_3 
    2  A    between atoms: C_2  and  C_4 
    3  A    between atoms: C_4  and  C_5 
    4  A    between atoms: C_5  and  N_6 
    5  A    between atoms: N_6  and  S_7 
    6  A    between atoms: S_7  and  C_10 

>  <TORSDO>
F 6

$$$$
C:\Users\siddh\.mgltools\PyRx\Ligands\ZINC000012505227_uff_E=468.64.pdbqt
 OpenBabel04182118313D

 18 18  0  0  0  0  0  0  0  0999 V2000
   -3.9410    1.5060    0.3940 S   0  0  0  0  0  0  0  0  0  0  0  0
   -4.8840    0.3010    0.5380 O   0  0  0  0  0  0  0  0  0  0  0  0
   -4.0210    2.1170    1.8020 O   0  0  0  0  0  0  0  0  0  0  0  0
   -2.3250    0.7910    0.2790 N   0  0  0  0  0  0  0  0  0  0  0  0
   -2.3200    0.1320   -0.5320 H   0  0  0  0  0  0  0  0  0  0  0  0
   -1.3160    1.8340    0.0820 C   0  0  0  0  0  2  0  0  0  0  0  0
    0.0600    1.2320    0.0230 C   0  0  0  0  0  3  0  0  0  0  0  0
    0.2300   -0.1040    0.0900 O   0  0  0  0  0  0  0  0  0  0  0  0
    0.5420   -0.9790    0.2150 H   0  0  0  0  0  0  0  0  0  0  0  0
    1.1360    2.0320   -0.0970 O   0  0  0  0  0  0  0  0  0  0  0  0
    1.0260    2.9610   -0.1450 H   0  0  0  0  0  0  0  0  0  0  0  0
   -4.4830    2.6300   -0.8930 C   0  0  0  0  0  0  0  0  0  0  0  0
   -5.1480    2.1450   -2.0250 C   0  0  0  0  0  2  0  0  0  0  0  0
   -5.5550    3.0070   -2.9970 N   0  0  0  0  0  0  0  0  0  0  0  0
   -5.3300    4.3450   -2.9000 C   0  0  0  0  0  3  0  0  0  0  0  0
   -6.0390    2.6410   -3.8170 H   0  0  0  0  0  0  0  0  0  0  0  0
   -4.6690    4.8660   -1.7850 C   0  0  0  0  0  3  0  0  0  0  0  0
   -4.2430    4.0010   -0.7760 C   0  0  0  0  0  3  0  0  0  0  0  0
  1  2  2  0  0  0  0
  1  3  2  0  0  0  0
  4  1  1  0  0  0  0
  5  4  1  0  0  0  0
  6  4  1  0  0  0  0
  7  6  1  0  0  0  0
  7  8  1  0  0  0  0
  8  9  1  0  0  0  0
 10  7  1  0  0  0  0
 11 10  1  0  0  0  0
 12 18  2  0  0  0  0
 12  1  1  0  0  0  0
 13 12  1  0  0  0  0
 14 15  1  0  0  0  0
 14 13  1  0  0  0  0
 15 17  2  0  0  0  0
 16 14  1  0  0  0  0
 17 18  1  0  0  0  0
M  END
>  <REMARK>
  6 active torsions:
  status: ('A' for Active; 'I' for Inactive)
    1  A    between atoms: O_1  and  C_2 
    2  A    between atoms: C_2  and  O_3 
    3  A    between atoms: C_2  and  C_4 
    4  A    between atoms: C_4  and  N_5 
    5  A    between atoms: N_5  and  S_6 
    6  A    between atoms: S_6  and  C_9 

>  <TORSDO>
F 6

$$$$
C:\Users\siddh\.mgltools\PyRx\Ligands\ZINC000012504764_uff_E=339.89.pdbqt
 OpenBabel04182118313D

 23 23  0  0  1  0  0  0  0  0999 V2000
    1.7210   -3.1700   -0.0200 C   0  0  2  0  0  3  0  0  0  0  0  0
    0.7540   -2.0190   -0.0040 C   0  0  0  0  0  0  0  0  0  0  0  0
   -0.6200   -2.1290    0.0480 C   0  0  0  0  0  3  0  0  0  0  0  0
   -1.1000   -0.8370    0.0270 C   0  0  0  0  0  0  0  0  0  0  0  0
    0.0130   -0.0130   -0.0180 C   0  0  0  0  0  0  0  0  0  0  0  0
    0.0230    1.4810   -0.0200 C   0  0  0  0  0  1  0  0  0  0  0  0
    1.1020   -0.7500   -0.0500 O   0  0  0  0  0  0  0  0  0  0  0  0
   -2.5220   -0.4480    0.0430 C   0  0  0  0  0  3  0  0  0  0  0  0
   -3.4790   -1.3960    0.0550 O   0  0  0  0  0  0  0  0  0  0  0  0
   -4.3820   -1.1500    0.0650 H   0  0  0  0  0  0  0  0  0  0  0  0
   -2.8780    0.8500    0.0250 O   0  0  0  0  0  0  0  0  0  0  0  0
   -2.2190    1.5170    0.0170 H   0  0  0  0  0  0  0  0  0  0  0  0
    2.7610   -2.9470    0.8990 O   0  0  0  0  0  0  0  0  0  0  0  0
    3.2940   -2.1770    0.5650 H   0  0  0  0  0  0  0  0  0  0  0  0
    2.2490   -3.4450   -1.4500 C   0  0  2  0  0  3  0  0  0  0  0  0
    1.1750   -3.6630   -2.3370 O   0  0  0  0  0  0  0  0  0  0  0  0
    0.6240   -4.4090   -1.9870 H   0  0  0  0  0  0  0  0  0  0  0  0
    3.2510   -4.6310   -1.4860 C   0  0  1  0  0  3  0  0  0  0  0  0
    2.7180   -5.7880   -0.8850 O   0  0  0  0  0  0  0  0  0  0  0  0
    1.9660   -6.1130   -1.4430 H   0  0  0  0  0  0  0  0  0  0  0  0
    3.7290   -4.9310   -2.9150 C   0  0  0  0  0  2  0  0  0  0  0  0
    4.6980   -5.9420   -2.8840 O   0  0  0  0  0  0  0  0  0  0  0  0
    4.9640   -6.0950   -3.8270 H   0  0  0  0  0  0  0  0  0  0  0  0
  1  2  1  0  0  0  0
  1 13  1  1  0  0  0
  2  3  2  0  0  0  0
  4  8  1  0  0  0  0
  4  3  1  0  0  0  0
  5  4  2  0  0  0  0
  6  5  1  0  0  0  0
  7  5  1  0  0  0  0
  7  2  1  0  0  0  0
  8  9  1  0  0  0  0
  9 10  1  0  0  0  0
 11  8  1  0  0  0  0
 12 11  1  0  0  0  0
 14 13  1  0  0  0  0
 15 16  1  6  0  0  0
 15  1  1  0  0  0  0
 16 17  1  0  0  0  0
 18 21  1  6  0  0  0
 18 15  1  0  0  0  0
 18 19  1  0  0  0  0
 20 19  1  0  0  0  0
 21 22  1  0  0  0  0
 23 22  1  0  0  0  0
M  END
>  <REMARK>
  11 active torsions:
  status: ('A' for Active; 'I' for Inactive)
    1  A    between atoms: C_3  and  C_4 
    2  A    between atoms: C_4  and  O_5 
    3  A    between atoms: C_4  and  O_6 
    4  A    between atoms: C_8  and  C_9 
    5  A    between atoms: C_9  and  O_10 
    6  A    between atoms: C_9  and  C_11 
    7  A    between atoms: C_11  and  O_12 
    8  A    between atoms: C_11  and  C_13 
    9  A    between atoms: C_13  and  O_14 
   10  A    between atoms: C_13  and  C_15 
   11  A    between atoms: C_15  and  O_16 

>  <TORSDO>
F 11

$$$$
C:\Users\siddh\.mgltools\PyRx\Ligands\ZINC000012494450_uff_E=80.98.pdbqt
 OpenBabel04182118313D

 21 20  0  0  1  0  0  0  0  0999 V2000
   -1.1370   -2.1530   -0.0130 C   0  0  1  0  0  3  0  0  0  0  0  0
   -1.1240   -0.6970    0.0140 N   0  0  0  0  0  0  0  0  0  0  0  0
    0.0350    0.0130   -0.0120 C   0  0  0  0  0  0  0  0  0  0  0  0
   -0.0070    1.5080    0.0080 C   0  0  0  0  0  1  0  0  0  0  0  0
    1.1150   -0.5600   -0.0420 O   0  0  0  0  0  0  0  0  0  0  0  0
   -2.0200   -0.1850    0.0640 H   0  0  0  0  0  0  0  0  0  0  0  0
   -2.4300   -2.6860    0.6170 C   0  0  0  0  0  2  0  0  0  0  0  0
   -2.5050   -2.2970    2.0960 C   0  0  0  0  0  2  0  0  0  0  0  0
   -3.7890   -2.8260    2.7230 C   0  0  0  0  0  2  0  0  0  0  0  0
   -3.8580   -2.4590    4.1230 N   0  0  0  0  0  0  0  0  0  0  0  0
   -4.9210   -2.8190    4.8910 C   0  0  0  0  0  0  0  0  0  0  0  0
   -4.9610   -2.4630    6.1960 N   0  0  0  0  0  0  0  0  0  0  0  0
   -5.8410   -3.4630    4.4110 O   0  0  0  0  0  0  0  0  0  0  0  0
   -4.1940   -1.9190    6.6160 H   0  0  0  0  0  0  0  0  0  0  0  0
   -5.7650   -2.7330    6.7810 H   0  0  0  0  0  0  0  0  0  0  0  0
   -3.0900   -1.9140    4.5460 H   0  0  0  0  0  0  0  0  0  0  0  0
   -1.0070   -2.6510   -1.4290 C   0  0  0  0  0  3  0  0  0  0  0  0
   -0.9380   -1.7840   -2.4580 O   0  0  0  0  0  0  0  0  0  0  0  0
   -0.8580   -2.1040   -3.3350 H   0  0  0  0  0  0  0  0  0  0  0  0
   -0.9660   -3.9750   -1.6720 O   0  0  0  0  0  0  0  0  0  0  0  0
   -1.0130   -4.5840   -0.9620 H   0  0  0  0  0  0  0  0  0  0  0  0
  1  2  1  0  0  0  0
  1  7  1  6  0  0  0
  2  6  1  0  0  0  0
  3  4  1  0  0  0  0
  3  2  1  0  0  0  0
  5  3  2  0  0  0  0
  7  8  1  0  0  0  0
  8  9  1  0  0  0  0
  9 10  1  0  0  0  0
 10 16  1  0  0  0  0
 10 11  1  0  0  0  0
 11 12  1  0  0  0  0
 12 14  1  0  0  0  0
 12 15  1  0  0  0  0
 13 11  2  0  0  0  0
 17  1  1  0  0  0  0
 18 17  1  0  0  0  0
 19 18  1  0  0  0  0
 20 17  1  0  0  0  0
 20 21  1  0  0  0  0
M  END
>  <REMARK>
  8 active torsions:
  status: ('A' for Active; 'I' for Inactive)
       I    between atoms: C_2  and  N_4 
    1  A    between atoms: N_4  and  C_5 
    2  A    between atoms: C_5  and  C_6 
    3  A    between atoms: C_5  and  C_13 
    4  A    between atoms: C_6  and  C_7 
    5  A    between atoms: C_7  and  C_8 
    6  A    between atoms: C_8  and  N_9 
       I    between atoms: N_9  and  C_10 
       I    between atoms: C_10  and  N_11 
    7  A    between atoms: C_13  and  O_14 
    8  A    between atoms: C_13  and  O_15 

>  <TORSDO>
F 8

$$$$
C:\Users\siddh\.mgltools\PyRx\Ligands\ZINC000012398436_uff_E=800.71.pdbqt
 OpenBabel04182118313D

 19 19  0  0  1  0  0  0  0  0999 V2000
    1.4480   -2.3420    2.5260 C   0  0  0  0  0  0  0  0  0  0  0  0
    0.9160   -2.6230    3.7610 C   0  0  2  0  0  3  0  0  0  0  0  0
    1.8860   -3.0710    4.5800 N   0  0  0  0  0  0  0  0  0  0  0  0
    3.0250   -3.0950    3.8980 N   0  0  0  0  0  0  0  0  0  0  0  0
    3.9310   -3.3930    4.2590 H   0  0  0  0  0  0  0  0  0  0  0  0
    2.7800   -2.6590    2.6460 C   0  0  0  0  0  0  0  0  0  0  0  0
    1.7710   -3.3350    5.5220 H   0  0  0  0  0  0  0  0  0  0  0  0
    0.7490   -1.8700    1.3260 C   0  0  0  0  0  0  0  0  0  0  0  0
    0.3410   -2.6820    0.5070 O   0  0  0  0  0  0  0  0  0  0  0  0
    0.6040   -0.5360    1.1140 O   0  0  0  0  0  0  0  0  0  0  0  0
   -0.0200   -0.0140   -0.0020 C   0  0  0  0  0  2  0  0  0  0  0  0
    0.0010    1.5070    0.0510 C   0  0  0  0  0  1  0  0  0  0  0  0
    3.9930   -2.6270    1.3400 S   0  0  0  0  0  0  0  0  0  0  0  0
    4.1900   -4.0670    0.2620 C   0  0  0  0  0  1  0  0  0  0  0  0
    3.7460   -1.3820    0.4740 O   0  0  0  0  0  0  0  0  0  0  0  0
    5.3550   -2.2570    1.9470 O   0  0  0  0  0  0  0  0  0  0  0  0
   -0.4430   -2.5180    4.1310 N   0  0  0  0  0  0  0  0  0  0  0  0
   -1.1450   -2.1960    3.4500 H   0  0  0  0  0  0  0  0  0  0  0  0
   -0.7440   -2.8050    5.0730 H   0  0  0  0  0  0  0  0  0  0  0  0
  1  6  2  0  0  0  0
  1  2  1  0  0  0  0
  2 17  1  6  0  0  0
  2  3  1  0  0  0  0
  3  7  1  0  0  0  0
  4  5  1  0  0  0  0
  4  3  1  0  0  0  0
  6  4  1  0  0  0  0
  8  1  1  0  0  0  0
  9  8  2  0  0  0  0
 10  8  1  0  0  0  0
 11 12  1  0  0  0  0
 11 10  1  0  0  0  0
 13 16  2  0  0  0  0
 13  6  1  0  0  0  0
 14 13  1  0  0  0  0
 15 13  2  0  0  0  0
 17 19  1  0  0  0  0
 18 17  1  0  0  0  0
M  END
>  <REMARK>
  5 active torsions:
  status: ('A' for Active; 'I' for Inactive)
    1  A    between atoms: C_2  and  O_3 
    2  A    between atoms: O_3  and  C_4 
    3  A    between atoms: C_4  and  C_6 
    4  A    between atoms: C_7  and  N_8 
    5  A    between atoms: C_12  and  S_13 

>  <TORSDO>
F 5

$$$$
C:\Users\siddh\.mgltools\PyRx\Ligands\ZINC000012397819_uff_E=436.69.pdbqt
 OpenBabel04182118313D

 18 19  0  0  1  0  0  0  0  0999 V2000
   -0.0750   -3.2550   -1.5270 N   0  0  0  0  0  0  0  0  0  0  0  0
    0.0740   -4.5860   -0.9950 C   0  0  0  0  0  2  0  0  0  0  0  0
   -0.2720   -5.4630   -2.2120 C   0  0  1  0  0  3  0  0  0  0  0  0
    0.1110   -4.6280   -3.4450 C   0  0  0  0  0  2  0  0  0  0  0  0
   -0.0610   -3.2670   -2.8780 C   0  0  0  0  0  0  0  0  0  0  0  0
   -0.0380   -2.2550   -3.5600 O   0  0  0  0  0  0  0  0  0  0  0  0
   -0.0400   -2.0840   -0.7050 C   0  0  0  0  0  0  0  0  0  0  0  0
   -0.1150   -0.7590   -1.0920 C   0  0  0  0  0  2  0  0  0  0  0  0
   -0.0030   -0.0010    0.0150 N   0  0  0  0  0  0  0  0  0  0  0  0
   -0.0080    1.4550    0.0670 C   0  0  0  0  0  1  0  0  0  0  0  0
    0.1320   -0.7760    1.0810 N   0  0  0  0  0  0  0  0  0  0  0  0
    0.1050   -2.0600    0.6710 C   0  0  0  0  0  3  0  0  0  0  0  0
    0.2370   -0.4570    2.0440 H   0  0  0  0  0  0  0  0  0  0  0  0
    0.3090   -6.8460   -2.1820 C   0  0  0  0  0  3  0  0  0  0  0  0
   -0.5020   -7.9210   -2.1840 O   0  0  0  0  0  0  0  0  0  0  0  0
   -0.1370   -8.7830   -2.1660 H   0  0  0  0  0  0  0  0  0  0  0  0
    1.6450   -7.0180   -2.1560 O   0  0  0  0  0  0  0  0  0  0  0  0
    2.2130   -6.2730   -2.1540 H   0  0  0  0  0  0  0  0  0  0  0  0
  1  2  1  0  0  0  0
  1  7  1  0  0  0  0
  3 14  1  1  0  0  0
  3  2  1  0  0  0  0
  4  5  1  0  0  0  0
  4  3  1  0  0  0  0
  5  1  1  0  0  0  0
  6  5  2  0  0  0  0
  7 12  2  0  0  0  0
  8  7  1  0  0  0  0
  8  9  1  0  0  0  0
  9 10  1  0  0  0  0
  9 11  1  0  0  0  0
 11 13  1  0  0  0  0
 12 11  1  0  0  0  0
 14 17  1  0  0  0  0
 15 14  1  0  0  0  0
 15 16  1  0  0  0  0
 17 18  1  0  0  0  0
M  END
>  <REMARK>
  4 active torsions:
  status: ('A' for Active; 'I' for Inactive)
    1  A    between atoms: C_4  and  N_5 
    2  A    between atoms: C_7  and  C_8 
    3  A    between atoms: C_8  and  O_9 
    4  A    between atoms: C_8  and  O_10 

>  <TORSDO>
F 4

$$$$
C:\Users\siddh\.mgltools\PyRx\Ligands\ZINC000012397813_uff_E=433.10.pdbqt
 OpenBabel04182118313D

 18 19  0  0  1  0  0  0  0  0999 V2000
    0.1050   -3.2430    1.5080 N   0  0  0  0  0  0  0  0  0  0  0  0
   -0.0840   -3.1340    2.9310 C   0  0  0  0  0  2  0  0  0  0  0  0
    0.3250   -4.5380    3.4240 C   0  0  2  0  0  3  0  0  0  0  0  0
    0.0290   -5.4870    2.2500 C   0  0  0  0  0  2  0  0  0  0  0  0
    0.1720   -4.5340    1.1210 C   0  0  0  0  0  0  0  0  0  0  0  0
    0.2180   -4.8880   -0.0460 O   0  0  0  0  0  0  0  0  0  0  0  0
    0.0770   -2.1060    0.6390 C   0  0  2  0  0  3  0  0  0  0  0  0
    0.1750   -2.0990   -0.7460 C   0  0  0  0  0  3  0  0  0  0  0  0
    0.1260   -0.7660   -1.0930 C   0  0  0  0  0  3  0  0  0  0  0  0
    0.0000   -0.0370    0.0310 N   0  0  0  0  0  0  0  0  0  0  0  0
   -0.0700    1.4150    0.1010 C   0  0  0  0  0  1  0  0  0  0  0  0
   -0.0350   -0.8380    1.0850 N   0  0  0  0  0  0  0  0  0  0  0  0
   -0.1300   -0.5490    2.0580 H   0  0  0  0  0  0  0  0  0  0  0  0
   -0.2490   -4.9800    4.7410 C   0  0  0  0  0  3  0  0  0  0  0  0
    0.0830   -6.1830    5.2460 O   0  0  0  0  0  0  0  0  0  0  0  0
   -0.2730   -6.4620    6.0670 H   0  0  0  0  0  0  0  0  0  0  0  0
   -1.0980   -4.1850    5.4220 O   0  0  0  0  0  0  0  0  0  0  0  0
   -1.3330   -3.3460    5.0770 H   0  0  0  0  0  0  0  0  0  0  0  0
  1  2  1  0  0  0  0
  2  3  1  0  0  0  0
  3 14  1  1  0  0  0
  4  3  1  0  0  0  0
  5  1  1  0  0  0  0
  5  4  1  0  0  0  0
  6  5  2  0  0  0  0
  7  8  1  1  0  0  0
  7 12  1  0  0  0  0
  7  1  1  0  0  0  0
  9  8  2  0  0  0  0
  9 10  1  0  0  0  0
 10 11  1  0  0  0  0
 10 12  1  0  0  0  0
 12 13  1  0  0  0  0
 14 15  1  0  0  0  0
 14 17  1  0  0  0  0
 15 16  1  0  0  0  0
 18 17  1  0  0  0  0
M  END
>  <REMARK>
  4 active torsions:
  status: ('A' for Active; 'I' for Inactive)
    1  A    between atoms: C_5  and  N_6 
    2  A    between atoms: C_8  and  C_9 
    3  A    between atoms: C_9  and  O_10 
    4  A    between atoms: C_9  and  O_11 

>  <TORSDO>
F 4

$$$$
C:\Users\siddh\.mgltools\PyRx\Ligands\ZINC000012396971_uff_E=357.93.pdbqt
 OpenBabel04182118313D

 21 22  0  0  1  0  0  0  0  0999 V2000
   -0.0110   -0.0900    0.0020 O   0  0  0  0  0  0  0  0  0  0  0  0
   -0.0540    1.2570    0.0080 C   0  0  0  0  0  0  0  0  0  0  0  0
    0.0710   -1.0230   -0.0090 H   0  0  0  0  0  0  0  0  0  0  0  0
    1.0940    1.9610    0.0030 O   0  0  0  0  0  0  0  0  0  0  0  0
    1.0680    2.8980    0.0070 H   0  0  0  0  0  0  0  0  0  0  0  0
   -1.3510    1.9450    0.0200 C   0  0  0  0  0  0  0  0  0  0  0  0
   -2.5420    1.2920    0.0230 N   0  0  0  0  0  0  0  0  0  0  0  0
   -3.4230    2.3030    0.0330 C   0  0  1  0  0  3  0  0  0  0  0  0
   -2.7200    0.2880    0.0190 H   0  0  0  0  0  0  0  0  0  0  0  0
   -2.8190    3.4900    0.0380 N   0  0  1  0  0  0  0  0  0  0  0  0
   -4.7710    2.1840    0.0330 N   0  0  0  0  0  0  0  0  0  0  0  0
   -1.5130    3.2940    0.0290 N   0  0  0  0  0  0  0  0  0  0  0  0
   -3.5010    4.6590    0.0480 C   0  0  0  0  0  2  0  0  0  0  0  0
   -0.7810    4.0050    0.0290 H   0  0  0  0  0  0  0  0  0  0  0  0
   -4.9090    4.5950    0.0430 C   0  0  0  0  0  0  0  0  0  0  0  0
   -5.5280    3.3200    0.0340 C   0  0  0  0  0  3  0  0  0  0  0  0
   -5.2130    1.2650    0.0330 H   0  0  0  0  0  0  0  0  0  0  0  0
   -5.7420    5.8460    0.0440 C   0  0  0  0  0  2  0  0  0  0  0  0
   -6.1680    6.2150   -1.3750 C   0  0  0  0  0  2  0  0  0  0  0  0
   -6.9400    7.3830   -1.3320 O   0  0  0  0  0  0  0  0  0  0  0  0
   -7.1800    7.5950   -2.2700 H   0  0  0  0  0  0  0  0  0  0  0  0
  1  2  1  0  0  0  0
  2  6  2  0  0  0  0
  3  1  1  0  0  0  0
  4  5  1  0  0  0  0
  4  2  1  0  0  0  0
  6  7  1  0  0  0  0
  6 12  1  0  0  0  0
  8  7  1  6  0  0  0
  8 11  1  0  0  0  0
  8 10  1  0  0  0  0
  9  7  1  0  0  0  0
 10 13  1  6  0  0  0
 11 17  1  0  0  0  0
 11 16  1  0  0  0  0
 12 14  1  0  0  0  0
 12 10  1  0  0  0  0
 15 18  1  0  0  0  0
 15 13  1  0  0  0  0
 16 15  2  0  0  0  0
 19 20  1  0  0  0  0
 19 18  1  0  0  0  0
 21 20  1  0  0  0  0
M  END
>  <REMARK>
  5 active torsions:
  status: ('A' for Active; 'I' for Inactive)
    1  A    between atoms: C_2  and  O_3 
    2  A    between atoms: C_2  and  C_4 
    3  A    between atoms: C_9  and  C_10 
    4  A    between atoms: C_10  and  C_11 
    5  A    between atoms: C_11  and  O_12 

>  <TORSDO>
F 5

$$$$
C:\Users\siddh\.mgltools\PyRx\Ligands\ZINC000012396154_uff_E=741.69.pdbqt
 OpenBabel04182118313D

 20 21  0  0  0  0  0  0  0  0999 V2000
   -1.2720    1.8980    0.0080 C   0  0  0  0  0  0  0  0  0  0  0  0
   -2.4610    1.2480    0.1380 C   0  0  0  0  0  3  0  0  0  0  0  0
   -3.8240    1.8840    0.0830 C   0  0  0  0  0  0  0  0  0  0  0  0
   -4.0030    3.1270   -0.2170 N   0  0  0  0  0  0  0  0  0  0  0  0
   -4.9490    3.5090   -0.2190 H   0  0  0  0  0  0  0  0  0  0  0  0
   -2.6670    4.1610   -0.6190 S   0  0  0  0  0  0  0  0  0  0  0  0
   -2.6920    4.4790   -2.1210 O   0  0  0  0  0  0  0  0  0  0  0  0
   -2.7510    5.4770    0.1670 O   0  0  0  0  0  0  0  0  0  0  0  0
   -1.2130    3.3000   -0.2280 N   0  0  0  0  0  0  0  0  0  0  0  0
   -0.3120    3.7970   -0.2570 H   0  0  0  0  0  0  0  0  0  0  0  0
    0.0030    1.1410    0.1280 C   0  0  0  0  0  0  0  0  0  0  0  0
   -0.0020   -0.1950    0.3070 O   0  0  0  0  0  0  0  0  0  0  0  0
   -0.0100   -1.0720    0.6380 H   0  0  0  0  0  0  0  0  0  0  0  0
    1.1820    1.7870    0.0480 O   0  0  0  0  0  0  0  0  0  0  0  0
    1.1990    2.7160   -0.0770 H   0  0  0  0  0  0  0  0  0  0  0  0
   -5.0060    1.0640    0.4210 C   0  0  0  0  0  0  0  0  0  0  0  0
   -4.9580   -0.2100    0.7440 O   0  0  0  0  0  0  0  0  0  0  0  0
   -6.1740   -0.6300    1.0090 C   0  0  0  0  0  3  0  0  0  0  0  0
   -7.0640    0.4130    0.8560 C   0  0  0  0  0  3  0  0  0  0  0  0
   -6.3150    1.5040    0.4760 C   0  0  0  0  0  3  0  0  0  0  0  0
  1 11  2  0  0  0  0
  1  2  1  0  0  0  0
  3  2  2  0  0  0  0
  3 16  1  0  0  0  0
  4  3  1  0  0  0  0
  5  4  1  0  0  0  0
  6  9  1  0  0  0  0
  6  4  1  0  0  0  0
  6  8  2  0  0  0  0
  7  6  2  0  0  0  0
  9  1  1  0  0  0  0
 10  9  1  0  0  0  0
 11 12  1  0  0  0  0
 12 13  1  0  0  0  0
 14 11  1  0  0  0  0
 15 14  1  0  0  0  0
 16 20  2  0  0  0  0
 16 17  1  0  0  0  0
 17 18  1  0  0  0  0
 19 18  2  0  0  0  0
 20 19  1  0  0  0  0
M  END
>  <REMARK>
  4 active torsions:
  status: ('A' for Active; 'I' for Inactive)
    1  A    between atoms: O_1  and  C_2 
    2  A    between atoms: C_2  and  O_3 
    3  A    between atoms: C_2  and  C_4 
    4  A    between atoms: C_6  and  C_7 

>  <TORSDO>
F 4

$$$$
C:\Users\siddh\.mgltools\PyRx\Ligands\ZINC000012394588_uff_E=386.19.pdbqt
 OpenBabel04182118313D

 19 20  0  0  0  0  0  0  0  0999 V2000
   -0.0170    1.4270    0.0160 C   0  0  0  0  0  1  0  0  0  0  0  0
    0.0030   -0.0340    0.0050 N   0  0  0  0  0  0  0  0  0  0  0  0
    0.0070   -0.7720   -1.1020 N   0  0  0  0  0  0  0  0  0  0  0  0
   -0.0030   -0.4160   -2.0580 H   0  0  0  0  0  0  0  0  0  0  0  0
    0.0270   -2.0810   -0.7400 C   0  0  0  0  0  2  0  0  0  0  0  0
    0.0380   -2.1450    0.6410 C   0  0  0  0  0  0  0  0  0  0  0  0
    0.0240   -0.8610    1.0640 C   0  0  0  0  0  0  0  0  0  0  0  0
    0.0270   -0.5240    2.3750 N   0  0  0  0  0  0  0  0  0  0  0  0
    0.0140    0.4540    2.6630 H   0  0  0  0  0  0  0  0  0  0  0  0
    0.0480   -1.5290    3.3030 C   0  0  0  0  0  2  0  0  0  0  0  0
    0.0670   -2.8530    2.9140 N   0  0  0  0  0  0  0  0  0  0  0  0
    0.0580   -3.1810    1.5630 C   0  0  0  0  0  0  0  0  0  0  0  0
    0.0610   -4.3440    1.1930 O   0  0  0  0  0  0  0  0  0  0  0  0
    0.0660   -3.9010    3.9450 C   0  0  0  0  0  2  0  0  0  0  0  0
   -1.3400   -4.2740    4.3090 C   0  0  0  0  0  3  0  0  0  0  0  0
   -2.3870   -3.6720    3.7090 O   0  0  0  0  0  0  0  0  0  0  0  0
   -3.2620   -3.9120    3.9430 H   0  0  0  0  0  0  0  0  0  0  0  0
   -1.5600   -5.2170    5.2420 O   0  0  0  0  0  0  0  0  0  0  0  0
   -0.8360   -5.6380    5.6620 H   0  0  0  0  0  0  0  0  0  0  0  0
  2  1  1  0  0  0  0
  2  7  1  0  0  0  0
  3  5  1  0  0  0  0
  3  2  1  0  0  0  0
  4  3  1  0  0  0  0
  5  6  1  0  0  0  0
  6  7  2  0  0  0  0
  6 12  1  0  0  0  0
  7  8  1  0  0  0  0
  8  9  1  0  0  0  0
  8 10  1  0  0  0  0
 11 10  1  0  0  0  0
 11 14  1  0  0  0  0
 12 11  1  0  0  0  0
 13 12  2  0  0  0  0
 14 15  1  0  0  0  0
 15 18  1  0  0  0  0
 16 17  1  0  0  0  0
 16 15  1  0  0  0  0
 18 19  1  0  0  0  0
M  END
>  <REMARK>
  4 active torsions:
  status: ('A' for Active; 'I' for Inactive)
    1  A    between atoms: N_11  and  C_12 
    2  A    between atoms: C_12  and  C_13 
    3  A    between atoms: C_13  and  O_14 
    4  A    between atoms: C_13  and  O_15 

>  <TORSDO>
F 4

$$$$
C:\Users\siddh\.mgltools\PyRx\Ligands\ZINC000012368780_uff_E=159.39.pdbqt
 OpenBabel04182118313D

 16 16  0  0  1  0  0  0  0  0999 V2000
    1.7180   -3.7010   -3.2110 N   0  0  0  0  0  0  0  0  0  0  0  0
    2.7140   -4.4450   -2.7130 N   0  0  0  0  0  0  0  0  0  0  0  0
    2.7520   -5.8050   -2.8860 C   0  0  0  0  0  0  0  0  0  0  0  0
    3.6720   -6.4520   -2.4190 O   0  0  0  0  0  0  0  0  0  0  0  0
    1.7360   -6.4400   -3.5960 C   0  0  0  0  0  3  0  0  0  0  0  0
    0.6960   -5.6780   -4.1170 C   0  0  0  0  0  3  0  0  0  0  0  0
    0.6910   -4.2990   -3.9190 C   0  0  0  0  0  0  0  0  0  0  0  0
   -0.2240   -3.6300   -4.3730 O   0  0  0  0  0  0  0  0  0  0  0  0
    3.4360   -4.0050   -2.2090 H   0  0  0  0  0  0  0  0  0  0  0  0
    1.7360   -2.2490   -2.9880 C   0  0  0  0  0  2  0  0  0  0  0  0
    1.0110   -1.8950   -1.6780 C   0  0  2  0  0  3  0  0  0  0  0  0
    0.8760   -0.3720   -1.4910 C   0  0  0  0  0  2  0  0  0  0  0  0
   -0.0390   -0.0400    0.0610 S   0  0  0  0  0  0  0  0  0  0  0  0
   -0.0010    1.7800   -0.0280 C   0  0  0  0  0  1  0  0  0  0  0  0
    1.6670   -2.4810   -0.5810 O   0  0  0  0  0  0  0  0  0  0  0  0
    2.5810   -2.0930   -0.5350 H   0  0  0  0  0  0  0  0  0  0  0  0
  1 10  1  0  0  0  0
  1  2  1  0  0  0  0
  2  9  1  0  0  0  0
  3  2  1  0  0  0  0
  3  4  2  0  0  0  0
  5  3  1  0  0  0  0
  6  7  1  0  0  0  0
  6  5  2  0  0  0  0
  7  1  1  0  0  0  0
  8  7  2  0  0  0  0
 11 10  1  6  0  0  0
 11 12  1  0  0  0  0
 11 15  1  0  0  0  0
 12 13  1  0  0  0  0
 14 13  1  0  0  0  0
 15 16  1  0  0  0  0
M  END
>  <REMARK>
  5 active torsions:
  status: ('A' for Active; 'I' for Inactive)
    1  A    between atoms: S_2  and  C_3 
    2  A    between atoms: C_3  and  C_4 
    3  A    between atoms: C_4  and  O_5 
    4  A    between atoms: C_4  and  C_6 
    5  A    between atoms: C_6  and  N_7 

>  <TORSDO>
F 5

$$$$
C:\Users\siddh\.mgltools\PyRx\Ligands\ZINC000012357972_uff_E=427.33.pdbqt
 OpenBabel04182118313D

 20 21  0  0  0  0  0  0  0  0999 V2000
    0.4620    1.4680   -0.2120 C   0  0  0  0  0  1  0  0  0  0  0  0
    0.2450    0.0300   -0.1540 N   0  0  0  0  0  0  0  0  0  0  0  0
   -0.0930   -0.7730   -1.1730 C   0  0  0  0  0  2  0  0  0  0  0  0
   -0.2040   -2.0650   -0.6940 C   0  0  0  0  0  0  0  0  0  0  0  0
    0.0720   -1.9650    0.6850 C   0  0  0  0  0  0  0  0  0  0  0  0
    0.3550   -0.6760    0.9560 N   0  0  0  0  0  0  0  0  0  0  0  0
    0.6130   -0.3060    1.8700 H   0  0  0  0  0  0  0  0  0  0  0  0
    0.1060   -3.0660    1.7180 C   0  0  0  0  0  0  0  0  0  0  0  0
    0.0590   -4.2130    1.3050 O   0  0  0  0  0  0  0  0  0  0  0  0
    0.2180   -2.8620    3.0880 N   0  0  0  0  0  0  0  0  0  0  0  0
    0.3330   -4.0030    3.9960 C   0  0  0  0  0  2  0  0  0  0  0  0
    0.1880   -1.5630    3.7590 C   0  0  0  0  0  2  0  0  0  0  0  0
   -0.7790   -3.9030    5.0480 C   0  0  0  0  0  2  0  0  0  0  0  0
   -0.6980   -2.6670    5.7360 O   0  0  0  0  0  0  0  0  0  0  0  0
   -0.9120   -1.5990    4.8290 C   0  0  0  0  0  2  0  0  0  0  0  0
   -0.5570   -3.2180   -1.5610 C   0  0  0  0  0  3  0  0  0  0  0  0
   -0.7510   -3.0160   -2.8790 O   0  0  0  0  0  0  0  0  0  0  0  0
   -0.9740   -3.7370   -3.4350 H   0  0  0  0  0  0  0  0  0  0  0  0
   -0.6880   -4.4620   -1.0710 O   0  0  0  0  0  0  0  0  0  0  0  0
   -0.5570   -4.6210   -0.1570 H   0  0  0  0  0  0  0  0  0  0  0  0
  1  2  1  0  0  0  0
  2  6  1  0  0  0  0
  3  4  1  0  0  0  0
  3  2  1  0  0  0  0
  4  5  2  0  0  0  0
  5  6  1  0  0  0  0
  5  8  1  0  0  0  0
  6  7  1  0  0  0  0
  8 10  1  0  0  0  0
  9  8  2  0  0  0  0
 10 12  1  0  0  0  0
 10 11  1  0  0  0  0
 11 13  1  0  0  0  0
 12 15  1  0  0  0  0
 13 14  1  0  0  0  0
 15 14  1  0  0  0  0
 16 19  1  0  0  0  0
 16  4  1  0  0  0  0
 17 16  1  0  0  0  0
 18 17  1  0  0  0  0
 19 20  1  0  0  0  0
M  END
>  <REMARK>
  4 active torsions:
  status: ('A' for Active; 'I' for Inactive)
    1  A    between atoms: C_4  and  C_5 
    2  A    between atoms: C_5  and  O_6 
    3  A    between atoms: C_5  and  O_7 
    4  A    between atoms: C_8  and  C_9 
       I    between atoms: C_9  and  N_11 

>  <TORSDO>
F 4

$$$$
C:\Users\siddh\.mgltools\PyRx\Ligands\ZINC000012357969_uff_E=354.53.pdbqt
 OpenBabel04182118313D

 20 20  0  0  1  0  0  0  0  0999 V2000
   -2.4330   -4.3840   -1.1270 C   0  0  1  0  0  3  0  0  0  0  0  0
   -3.4970   -3.5620   -1.2650 N   0  0  0  0  0  0  0  0  0  0  0  0
   -3.4620   -2.5450   -1.3300 H   0  0  0  0  0  0  0  0  0  0  0  0
   -4.5920   -4.3050   -1.3020 N   0  0  0  0  0  0  0  0  0  0  0  0
   -5.9400   -3.7690   -1.4500 C   0  0  0  0  0  1  0  0  0  0  0  0
   -4.2680   -5.6050   -1.1920 C   0  0  0  0  0  3  0  0  0  0  0  0
   -2.8950   -5.7050   -1.0760 C   0  0  0  0  0  0  0  0  0  0  0  0
   -1.0350   -3.8800   -1.0520 C   0  0  0  0  0  0  0  0  0  0  0  0
   -0.7770   -2.5450   -1.1120 N   0  0  0  0  0  0  0  0  0  0  0  0
   -1.5580   -1.8770   -1.2070 H   0  0  0  0  0  0  0  0  0  0  0  0
   -0.1080   -4.6630   -0.9350 O   0  0  0  0  0  0  0  0  0  0  0  0
    0.5890   -2.0510   -1.0480 C   0  0  0  0  0  2  0  0  0  0  0  0
    0.6340   -0.5280   -1.1100 C   0  0  0  0  0  2  0  0  0  0  0  0
   -0.0310   -0.0090    0.0210 O   0  0  0  0  0  0  0  0  0  0  0  0
   -0.0040    1.3980   -0.0240 C   0  0  0  0  0  1  0  0  0  0  0  0
   -2.1690   -6.9920   -0.9320 C   0  0  0  0  0  3  0  0  0  0  0  0
   -2.8640   -8.1450   -0.9060 O   0  0  0  0  0  0  0  0  0  0  0  0
   -2.4130   -8.9610   -0.8160 H   0  0  0  0  0  0  0  0  0  0  0  0
   -0.8310   -7.0420   -0.8260 O   0  0  0  0  0  0  0  0  0  0  0  0
   -0.3300   -6.2500   -0.8430 H   0  0  0  0  0  0  0  0  0  0  0  0
  1  7  1  0  0  0  0
  1  8  1  6  0  0  0
  2  1  1  0  0  0  0
  3  2  1  0  0  0  0
  4  2  1  0  0  0  0
  4  6  1  0  0  0  0
  5  4  1  0  0  0  0
  6  7  2  0  0  0  0
  7 16  1  0  0  0  0
  8 11  2  0  0  0  0
  9  8  1  0  0  0  0
  9 12  1  0  0  0  0
 10  9  1  0  0  0  0
 13 12  1  0  0  0  0
 13 14  1  0  0  0  0
 15 14  1  0  0  0  0
 16 17  1  0  0  0  0
 16 19  1  0  0  0  0
 17 18  1  0  0  0  0
 20 19  1  0  0  0  0
M  END
>  <REMARK>
  7 active torsions:
  status: ('A' for Active; 'I' for Inactive)
    1  A    between atoms: O_2  and  C_3 
    2  A    between atoms: C_3  and  C_4 
    3  A    between atoms: C_4  and  N_5 
       I    between atoms: N_5  and  C_6 
    4  A    between atoms: C_6  and  C_8 
    5  A    between atoms: C_14  and  C_15 
    6  A    between atoms: C_15  and  O_16 
    7  A    between atoms: C_15  and  O_17 

>  <TORSDO>
F 7

$$$$
C:\Users\siddh\.mgltools\PyRx\Ligands\ZINC000012357960_uff_E=530.39.pdbqt
 OpenBabel04182118313D

 24 25  0  0  1  0  0  0  0  0999 V2000
   -0.0440    1.4840   -0.0280 C   0  0  0  0  0  1  0  0  0  0  0  0
   -0.0500    0.0250    0.0370 N   0  0  0  0  0  0  0  0  0  0  0  0
   -0.1150   -0.7290   -1.0470 N   0  0  0  0  0  0  0  0  0  0  0  0
   -0.1690   -0.3880   -2.0060 H   0  0  0  0  0  0  0  0  0  0  0  0
   -0.0980   -2.0200   -0.6730 C   0  0  0  0  0  2  0  0  0  0  0  0
   -0.0210   -2.0990    0.7120 C   0  0  0  0  0  0  0  0  0  0  0  0
    0.0080   -0.7610    1.1420 C   0  0  0  0  0  0  0  0  0  0  0  0
    0.0400   -3.3760    1.4930 C   0  0  0  0  0  0  0  0  0  0  0  0
    0.1420   -3.3410    2.7070 O   0  0  0  0  0  0  0  0  0  0  0  0
    0.0170   -4.5860    0.8630 N   0  0  0  0  0  0  0  0  0  0  0  0
   -0.0700   -4.6360   -0.1620 H   0  0  0  0  0  0  0  0  0  0  0  0
    0.1780   -5.8200    1.6110 C   0  0  0  0  0  2  0  0  0  0  0  0
    0.1900   -7.0090    0.7000 C   0  0  1  0  0  3  0  0  0  0  0  0
    1.2800   -7.8080    0.4260 C   0  0  0  0  0  3  0  0  0  0  0  0
    0.8070   -8.7600   -0.4490 C   0  0  0  0  0  3  0  0  0  0  0  0
   -0.5000   -8.5280   -0.6680 N   0  0  0  0  0  0  0  0  0  0  0  0
   -0.8800   -7.4620    0.0200 N   0  0  0  0  0  0  0  0  0  0  0  0
   -1.1310   -9.0890   -1.2820 H   0  0  0  0  0  0  0  0  0  0  0  0
   -1.8170   -7.0570    0.0320 H   0  0  0  0  0  0  0  0  0  0  0  0
    0.0890   -0.2220    2.5360 C   0  0  0  0  0  3  0  0  0  0  0  0
    0.1320    1.1070    2.7480 O   0  0  0  0  0  0  0  0  0  0  0  0
    0.1830    1.4400    3.6220 H   0  0  0  0  0  0  0  0  0  0  0  0
    0.1140   -1.0340    3.6050 O   0  0  0  0  0  0  0  0  0  0  0  0
    0.0860   -1.9640    3.4870 H   0  0  0  0  0  0  0  0  0  0  0  0
  1  2  1  0  0  0  0
  2  7  1  0  0  0  0
  3  5  1  0  0  0  0
  3  2  1  0  0  0  0
  4  3  1  0  0  0  0
  5  6  1  0  0  0  0
  6  7  2  0  0  0  0
  6  8  1  0  0  0  0
  7 20  1  0  0  0  0
  8  9  2  0  0  0  0
 10  8  1  0  0  0  0
 10 12  1  0  0  0  0
 11 10  1  0  0  0  0
 13 12  1  1  0  0  0
 14 13  1  0  0  0  0
 15 14  2  0  0  0  0
 16 15  1  0  0  0  0
 16 17  1  0  0  0  0
 17 19  1  0  0  0  0
 17 13  1  0  0  0  0
 18 16  1  0  0  0  0
 20 21  1  0  0  0  0
 20 23  1  0  0  0  0
 21 22  1  0  0  0  0
 24 23  1  0  0  0  0
M  END
>  <REMARK>
  6 active torsions:
  status: ('A' for Active; 'I' for Inactive)
    1  A    between atoms: C_6  and  C_7 
       I    between atoms: C_7  and  N_9 
    2  A    between atoms: N_9  and  C_10 
    3  A    between atoms: C_10  and  C_11 
    4  A    between atoms: C_17  and  C_18 
    5  A    between atoms: C_18  and  O_19 
    6  A    between atoms: C_18  and  O_20 

>  <TORSDO>
F 6

$$$$
C:\Users\siddh\.mgltools\PyRx\Ligands\ZINC000012336444_uff_E=62.30.pdbqt
 OpenBabel04182118313D

 16 15  0  0  1  0  0  0  0  0999 V2000
    1.5350   -2.3770    2.4650 C   0  0  1  0  0  3  0  0  0  0  0  0
    0.9400   -1.7170    1.2430 C   0  0  0  0  0  0  0  0  0  0  0  0
    0.5050   -2.4020    0.3290 O   0  0  0  0  0  0  0  0  0  0  0  0
    0.9110   -0.3580    1.1610 O   0  0  0  0  0  0  0  0  0  0  0  0
    0.3580    0.3080    0.0830 C   0  0  0  0  0  2  0  0  0  0  0  0
    0.5370    1.8110    0.2340 C   0  0  0  0  0  1  0  0  0  0  0  0
    0.7400   -2.0040    3.7350 C   0  0  0  0  0  2  0  0  0  0  0  0
   -0.7060   -2.4440    3.7100 C   0  0  0  0  0  3  0  0  0  0  0  0
   -1.2100   -3.1320    2.6660 O   0  0  0  0  0  0  0  0  0  0  0  0
   -2.1090   -3.3970    2.6690 H   0  0  0  0  0  0  0  0  0  0  0  0
   -1.5070   -2.1430    4.7480 O   0  0  0  0  0  0  0  0  0  0  0  0
   -1.1680   -1.6650    5.4790 H   0  0  0  0  0  0  0  0  0  0  0  0
    1.5610   -3.7560    2.3000 O   0  0  0  0  0  0  0  0  0  0  0  0
    2.4050   -4.5860    2.9700 C   0  0  0  0  0  0  0  0  0  0  0  0
    2.2520   -6.0670    2.8230 C   0  0  0  0  0  1  0  0  0  0  0  0
    3.2970   -4.1370    3.6760 O   0  0  0  0  0  0  0  0  0  0  0  0
  1  7  1  1  0  0  0
  2  1  1  0  0  0  0
  3  2  2  0  0  0  0
  4  2  1  0  0  0  0
  5  6  1  0  0  0  0
  5  4  1  0  0  0  0
  8  7  1  0  0  0  0
  8 11  1  0  0  0  0
  9 10  1  0  0  0  0
  9  8  1  0  0  0  0
 11 12  1  0  0  0  0
 13  1  1  0  0  0  0
 13 14  1  0  0  0  0
 14 16  2  0  0  0  0
 15 14  1  0  0  0  0
M  END
>  <REMARK>
  9 active torsions:
  status: ('A' for Active; 'I' for Inactive)
    1  A    between atoms: C_2  and  O_3 
    2  A    between atoms: O_3  and  C_4 
    3  A    between atoms: C_4  and  C_6 
    4  A    between atoms: C_6  and  C_7 
    5  A    between atoms: C_6  and  O_11 
    6  A    between atoms: C_7  and  C_8 
    7  A    between atoms: C_8  and  O_9 
    8  A    between atoms: C_8  and  O_10 
    9  A    between atoms: O_11  and  C_12 

>  <TORSDO>
F 9

$$$$
C:\Users\siddh\.mgltools\PyRx\Ligands\ZINC000011920449_uff_E=363.80.pdbqt
 OpenBabel04182118313D

 19 20  0  0  0  0  0  0  0  0999 V2000
    0.0490   -0.1880    0.0000 O   0  0  0  0  0  0  0  0  0  0  0  0
    0.0280    1.1580   -0.0270 C   0  0  0  0  0  3  0  0  0  0  0  0
    0.0900   -1.1230    0.0510 H   0  0  0  0  0  0  0  0  0  0  0  0
    1.1870    1.8440   -0.0390 O   0  0  0  0  0  0  0  0  0  0  0  0
    1.1760    2.7810   -0.0580 H   0  0  0  0  0  0  0  0  0  0  0  0
   -1.2530    1.8760   -0.0230 C   0  0  0  0  0  0  0  0  0  0  0  0
   -2.5220    1.3290    0.0200 C   0  0  0  0  0  2  0  0  0  0  0  0
   -3.4240    2.3300    0.0430 N   0  0  0  0  0  0  0  0  0  0  0  0
   -2.7610    3.4770    0.0040 N   0  0  0  0  0  0  0  0  0  0  0  0
   -4.4370    2.2230    0.0830 H   0  0  0  0  0  0  0  0  0  0  0  0
   -1.4380    3.2390   -0.0380 C   0  0  0  0  0  3  0  0  0  0  0  0
   -3.3930    4.7890    0.0640 C   0  0  0  0  0  2  0  0  0  0  0  0
   -4.4190    4.9740   -1.0670 C   0  0  0  0  0  2  0  0  0  0  0  0
   -5.0270    6.3270   -1.0760 N   0  0  0  0  0  0  0  0  0  0  0  0
   -6.1090    6.3830   -2.0800 C   0  0  0  0  0  2  0  0  0  0  0  0
   -6.7290    7.7870   -2.0980 C   0  0  0  0  0  2  0  0  0  0  0  0
   -7.2460    8.1190   -0.8240 O   0  0  0  0  0  0  0  0  0  0  0  0
   -6.1950    8.1280    0.1210 C   0  0  0  0  0  2  0  0  0  0  0  0
   -5.5660    6.7380    0.2370 C   0  0  0  0  0  2  0  0  0  0  0  0
  1  3  1  0  0  0  0
  2  6  1  0  0  0  0
  2  1  1  0  0  0  0
  4  2  1  0  0  0  0
  5  4  1  0  0  0  0
  6  7  1  0  0  0  0
  7  8  1  0  0  0  0
  8 10  1  0  0  0  0
  9  8  1  0  0  0  0
  9 12  1  0  0  0  0
 11  6  2  0  0  0  0
 11  9  1  0  0  0  0
 13 12  1  0  0  0  0
 14 13  1  0  0  0  0
 14 19  1  0  0  0  0
 15 14  1  0  0  0  0
 16 15  1  0  0  0  0
 16 17  1  0  0  0  0
 17 18  1  0  0  0  0
 18 19  1  0  0  0  0
M  END
>  <REMARK>
  5 active torsions:
  status: ('A' for Active; 'I' for Inactive)
    1  A    between atoms: C_2  and  O_3 
    2  A    between atoms: C_2  and  C_4 
    3  A    between atoms: N_6  and  C_7 
    4  A    between atoms: C_7  and  C_8 
    5  A    between atoms: C_8  and  N_9 

>  <TORSDO>
F 5

$$$$
C:\Users\siddh\.mgltools\PyRx\Ligands\ZINC000011919891_uff_E=168.04.pdbqt
 OpenBabel04182118313D

 18 18  0  0  0  0  0  0  0  0999 V2000
    0.1660   -2.1010   -1.2650 C   0  0  0  0  0  0  0  0  0  0  0  0
    0.1350   -2.7560   -2.5210 C   0  0  0  0  0  0  0  0  0  0  0  0
    0.1610   -4.1200   -2.5750 N   0  0  0  0  0  0  0  0  0  0  0  0
    0.2030   -4.8720   -1.4390 C   0  0  0  0  0  0  0  0  0  0  0  0
    0.2460   -6.3050   -1.5170 S   0  0  0  0  0  0  0  0  0  0  0  0
    0.2040   -4.2730   -0.2270 N   0  0  0  0  0  0  0  0  0  0  0  0
    0.1830   -2.9110   -0.1040 C   0  0  0  0  0  0  0  0  0  0  0  0
    0.1350   -2.4230    1.0090 O   0  0  0  0  0  0  0  0  0  0  0  0
    0.1590   -4.5860   -3.5120 H   0  0  0  0  0  0  0  0  0  0  0  0
    0.2210   -4.8290    0.5860 H   0  0  0  0  0  0  0  0  0  0  0  0
    0.1650   -0.6630   -1.2030 N   0  0  0  0  0  0  0  0  0  0  0  0
    0.8890    0.0730   -0.3100 C   0  0  0  0  0  0  0  0  0  0  0  0
    0.8670    1.5680   -0.3940 C   0  0  0  0  0  1  0  0  0  0  0  0
    1.6110   -0.4620    0.5180 O   0  0  0  0  0  0  0  0  0  0  0  0
   -0.3480   -0.1430   -1.9280 H   0  0  0  0  0  0  0  0  0  0  0  0
    0.1220   -2.0250   -3.7420 N   0  0  0  0  0  0  0  0  0  0  0  0
    0.1500   -0.9980   -3.7720 H   0  0  0  0  0  0  0  0  0  0  0  0
    0.1220   -2.5260   -4.6410 H   0  0  0  0  0  0  0  0  0  0  0  0
  1 11  1  0  0  0  0
  1  7  1  0  0  0  0
  2  1  2  0  0  0  0
  3  2  1  0  0  0  0
  3  4  1  0  0  0  0
  4  6  1  0  0  0  0
  5  4  2  0  0  0  0
  6  7  1  0  0  0  0
  6 10  1  0  0  0  0
  7  8  2  0  0  0  0
  9  3  1  0  0  0  0
 11 12  1  0  0  0  0
 12 14  2  0  0  0  0
 13 12  1  0  0  0  0
 15 11  1  0  0  0  0
 16  2  1  0  0  0  0
 17 16  1  0  0  0  0
 18 16  1  0  0  0  0
M  END
>  <REMARK>
  2 active torsions:
  status: ('A' for Active; 'I' for Inactive)
       I    between atoms: C_2  and  N_4 
    1  A    between atoms: N_4  and  C_5 
    2  A    between atoms: C_6  and  N_7 

>  <TORSDO>
F 2

$$$$
C:\Users\siddh\.mgltools\PyRx\Ligands\ZINC000011919417_uff_E=198.02.pdbqt
 OpenBabel04182118313D

 20 21  0  0  1  0  0  0  0  0999 V2000
   -0.0020    1.5380    0.0300 C   0  0  0  0  0  1  0  0  0  0  0  0
    0.0270    0.0690   -0.0010 N   0  0  0  0  0  0  0  0  0  0  0  0
   -1.3400   -0.4710   -0.0900 C   0  0  0  0  0  2  0  0  0  0  0  0
   -1.2750   -1.9870   -0.2700 C   0  0  0  0  0  2  0  0  0  0  0  0
   -0.4930   -2.6040    0.7960 N   0  0  0  0  0  0  0  0  0  0  0  0
   -0.5560   -4.0290    0.9040 C   0  0  1  0  0  3  0  0  0  0  0  0
   -1.2520   -4.7560   -0.0120 N   0  0  0  0  0  0  0  0  0  0  0  0
   -1.7830   -4.2710   -0.7350 H   0  0  0  0  0  0  0  0  0  0  0  0
   -1.2550   -6.1120    0.0160 C   0  0  0  0  0  2  0  0  0  0  0  0
   -0.5530   -6.7920    1.0180 C   0  0  0  0  0  0  0  0  0  0  0  0
    0.1320   -6.0300    1.9730 C   0  0  0  0  0  3  0  0  0  0  0  0
    0.1320   -4.6740    1.8890 N   0  0  0  0  0  0  0  0  0  0  0  0
    0.6560   -4.1300    2.5750 H   0  0  0  0  0  0  0  0  0  0  0  0
    0.7880   -1.9850    1.1220 C   0  0  0  0  0  2  0  0  0  0  0  0
    0.6730   -0.4610    1.2140 C   0  0  0  0  0  2  0  0  0  0  0  0
   -0.5290   -8.2710    1.0560 C   0  0  0  0  0  3  0  0  0  0  0  0
   -1.1460   -8.9870    0.0950 O   0  0  0  0  0  0  0  0  0  0  0  0
   -1.1280   -9.9230    0.1240 H   0  0  0  0  0  0  0  0  0  0  0  0
    0.1290   -8.9170    2.0380 O   0  0  0  0  0  0  0  0  0  0  0  0
    0.5620   -8.4300    2.7110 H   0  0  0  0  0  0  0  0  0  0  0  0
  2  1  1  0  0  0  0
  2 15  1  0  0  0  0
  3  2  1  0  0  0  0
  4  3  1  0  0  0  0
  4  5  1  0  0  0  0
  5 14  1  0  0  0  0
  6  5  1  6  0  0  0
  6 12  1  0  0  0  0
  7  9  1  0  0  0  0
  7  6  1  0  0  0  0
  8  7  1  0  0  0  0
  9 10  1  0  0  0  0
 10 16  1  0  0  0  0
 10 11  2  0  0  0  0
 12 11  1  0  0  0  0
 12 13  1  0  0  0  0
 14 15  1  0  0  0  0
 16 19  1  0  0  0  0
 17 18  1  0  0  0  0
 17 16  1  0  0  0  0
 19 20  1  0  0  0  0
M  END
>  <REMARK>
  3 active torsions:
  status: ('A' for Active; 'I' for Inactive)
       I    between atoms: N_5  and  C_6 
    1  A    between atoms: C_10  and  C_11 
    2  A    between atoms: C_11  and  O_12 
    3  A    between atoms: C_11  and  O_13 

>  <TORSDO>
F 3

$$$$
C:\Users\siddh\.mgltools\PyRx\Ligands\ZINC000011891478_uff_E=598.27.pdbqt
 OpenBabel04182118313D

 17 17  0  0  1  0  0  0  0  0999 V2000
    1.7340   -0.7290   -1.3100 N   0  0  0  0  0  0  0  0  0  0  0  0
    2.3140    0.0460   -2.4140 C   0  0  0  0  0  2  0  0  0  0  0  0
    3.7860    0.3200   -2.0940 C   0  0  0  0  0  2  0  0  0  0  0  0
    4.5350   -1.0030   -1.8870 C   0  0  0  0  0  2  0  0  0  0  0  0
    3.8450   -1.8460   -0.7980 C   0  0  1  0  0  3  0  0  0  0  0  0
    2.3630   -2.0500   -1.1740 C   0  0  0  0  0  2  0  0  0  0  0  0
   -0.0420   -0.8050   -1.3760 S   0  0  0  0  0  0  0  0  0  0  0  0
   -0.5350   -2.2620   -1.3750 O   0  0  0  0  0  0  0  0  0  0  0  0
   -0.5730   -0.1840   -2.6790 O   0  0  0  0  0  0  0  0  0  0  0  0
   -0.7350    0.0580    0.0130 N   0  0  0  0  0  0  0  0  0  0  0  0
   -0.2020    1.4260    0.0190 C   0  0  0  0  0  1  0  0  0  0  0  0
   -0.3340   -0.6390    1.2420 C   0  0  0  0  0  1  0  0  0  0  0  0
    4.5720   -3.1530   -0.5970 C   0  0  0  0  0  3  0  0  0  0  0  0
    5.8630   -3.1410   -0.2010 O   0  0  0  0  0  0  0  0  0  0  0  0
    6.3210   -3.9480   -0.0740 H   0  0  0  0  0  0  0  0  0  0  0  0
    3.9520   -4.3310   -0.7890 O   0  0  0  0  0  0  0  0  0  0  0  0
    3.0560   -4.3500   -1.0640 H   0  0  0  0  0  0  0  0  0  0  0  0
  1  6  1  0  0  0  0
  2  3  1  0  0  0  0
  2  1  1  0  0  0  0
  3  4  1  0  0  0  0
  4  5  1  0  0  0  0
  5 13  1  6  0  0  0
  6  5  1  0  0  0  0
  7  8  2  0  0  0  0
  7  1  1  0  0  0  0
  7 10  1  0  0  0  0
  9  7  2  0  0  0  0
 10 11  1  0  0  0  0
 10 12  1  0  0  0  0
 13 14  1  0  0  0  0
 14 15  1  0  0  0  0
 16 13  1  0  0  0  0
 17 16  1  0  0  0  0
M  END
>  <REMARK>
  5 active torsions:
  status: ('A' for Active; 'I' for Inactive)
    1  A    between atoms: N_2  and  S_4 
    2  A    between atoms: S_4  and  N_7 
    3  A    between atoms: C_11  and  C_12 
    4  A    between atoms: C_12  and  O_13 
    5  A    between atoms: C_12  and  O_14 

>  <TORSDO>
F 5

$$$$
C:\Users\siddh\.mgltools\PyRx\Ligands\ZINC000011850592_uff_E=163.33.pdbqt
 OpenBabel04182118313D

 20 21  0  0  0  0  0  0  0  0999 V2000
   -0.9610   -3.6900    1.5730 C   0  0  0  0  0  0  0  0  0  0  0  0
   -2.2210   -4.2870    1.3650 C   0  0  0  0  0  3  0  0  0  0  0  0
   -2.6190   -5.3480    2.1680 C   0  0  0  0  0  3  0  0  0  0  0  0
   -1.7660   -5.8090    3.1700 C   0  0  0  0  0  0  0  0  0  0  0  0
   -0.5580   -5.2100    3.3360 N   0  0  0  0  0  0  0  0  0  0  0  0
    0.0670   -5.5460    4.0690 H   0  0  0  0  0  0  0  0  0  0  0  0
   -0.1690   -4.1940    2.5640 N   0  0  0  0  0  0  0  0  0  0  0  0
    0.7500   -3.7800    2.7190 H   0  0  0  0  0  0  0  0  0  0  0  0
   -0.4750   -2.6050    0.7550 N   0  0  0  0  0  0  0  0  0  0  0  0
   -1.3190   -1.8770   -0.1890 C   0  0  0  0  0  2  0  0  0  0  0  0
   -1.2250   -0.3820    0.1180 C   0  0  0  0  0  2  0  0  0  0  0  0
    0.1890    0.0370    0.0640 N   0  0  0  0  0  0  0  0  0  0  0  0
    0.3060    1.4930    0.2040 C   0  0  0  0  0  1  0  0  0  0  0  0
    0.9640   -0.6640    1.1080 C   0  0  0  0  0  2  0  0  0  0  0  0
    0.9170   -2.1720    0.8410 C   0  0  0  0  0  2  0  0  0  0  0  0
   -2.1550   -6.9340    4.0380 C   0  0  0  0  0  3  0  0  0  0  0  0
   -3.3490   -7.5390    3.8830 O   0  0  0  0  0  0  0  0  0  0  0  0
   -3.5890   -8.2540    4.4400 H   0  0  0  0  0  0  0  0  0  0  0  0
   -1.3130   -7.3680    4.9960 O   0  0  0  0  0  0  0  0  0  0  0  0
   -0.4810   -6.9530    5.1110 H   0  0  0  0  0  0  0  0  0  0  0  0
  1  7  1  0  0  0  0
  2  1  2  0  0  0  0
  2  3  1  0  0  0  0
  3  4  2  0  0  0  0
  4  5  1  0  0  0  0
  4 16  1  0  0  0  0
  5  6  1  0  0  0  0
  7  8  1  0  0  0  0
  7  5  1  0  0  0  0
  9 15  1  0  0  0  0
  9  1  1  0  0  0  0
 10 11  1  0  0  0  0
 10  9  1  0  0  0  0
 12 11  1  0  0  0  0
 12 13  1  0  0  0  0
 12 14  1  0  0  0  0
 15 14  1  0  0  0  0
 16 19  1  0  0  0  0
 17 16  1  0  0  0  0
 17 18  1  0  0  0  0
 19 20  1  0  0  0  0
M  END
>  <REMARK>
  4 active torsions:
  status: ('A' for Active; 'I' for Inactive)
    1  A    between atoms: N_5  and  C_6 
    2  A    between atoms: C_9  and  C_10 
    3  A    between atoms: C_10  and  O_11 
    4  A    between atoms: C_10  and  O_12 

>  <TORSDO>
F 4

$$$$
C:\Users\siddh\.mgltools\PyRx\Ligands\ZINC000011768521_uff_E=750.88.pdbqt
 OpenBabel04182118313D

 12 13  0  0  1  0  0  0  0  0999 V2000
   -0.0500   -0.0670   -0.0700 O   0  0  0  0  0  0  0  0  0  0  0  0
    0.0480    1.4560    0.0970 S   0  0  0  0  0  0  0  0  0  0  0  0
   -0.8480    2.0610   -0.9940 O   0  0  0  0  0  0  0  0  0  0  0  0
   -0.3920    2.0150    1.7290 C   0  0  0  0  0  2  0  0  0  0  0  0
    0.9420    1.8830    2.4750 C   0  0  2  0  0  3  0  0  0  0  0  0
    1.0830    2.8960    3.4790 N   0  0  0  0  0  0  0  0  0  0  0  0
    2.2110    3.7130    3.3300 C   0  0  0  0  0  0  0  0  0  0  0  0
    2.4580    4.8100    4.2180 S   0  0  0  0  0  0  0  0  0  0  0  0
    3.3010    3.3350    1.9740 S   0  0  0  0  0  0  0  0  0  0  0  0
    2.1720    1.9670    1.4980 C   0  0  2  0  0  3  0  0  0  0  0  0
    1.7210    2.0690    0.0310 C   0  0  0  0  0  2  0  0  0  0  0  0
    0.4380    3.0080    4.2150 H   0  0  0  0  0  0  0  0  0  0  0  0
  1  2  2  0  0  0  0
  2  4  1  0  0  0  0
  3  2  2  0  0  0  0
  5  4  1  6  0  0  0
  5  6  1  0  0  0  0
  6 12  1  0  0  0  0
  7  6  1  0  0  0  0
  7  8  2  0  0  0  0
  9  7  1  0  0  0  0
 10 11  1  6  0  0  0
 10  9  1  0  0  0  0
 10  5  1  0  0  0  0
 11  2  1  0  0  0  0
M  END
>  <REMARK>
  0 active torsions:
  status: ('A' for Active; 'I' for Inactive)

>  <TORSDO>
F 0

$$$$
C:\Users\siddh\.mgltools\PyRx\Ligands\ZINC000011764898_uff_E=277.23.pdbqt
 OpenBabel04182118313D

 22 22  0  0  1  0  0  0  0  0999 V2000
    0.0720   -0.4210    2.4950 C   0  0  1  0  0  3  0  0  0  0  0  0
    0.0630   -0.8590    1.1050 N   0  0  0  0  0  0  0  0  0  0  0  0
    0.0280   -0.0200   -0.0440 C   0  0  0  0  0  0  0  0  0  0  0  0
    0.0450    1.4850   -0.0080 C   0  0  0  0  0  1  0  0  0  0  0  0
   -0.0290   -0.7800   -1.1420 C   0  0  0  0  0  0  0  0  0  0  0  0
   -0.0670   -0.3030   -2.5650 C   0  0  0  0  0  1  0  0  0  0  0  0
   -0.0360   -2.1360   -0.7600 N   0  0  0  0  0  0  0  0  0  0  0  0
    0.0340   -2.2390    0.6690 C   0  0  0  0  0  2  0  0  0  0  0  0
   -0.0790   -3.1790   -1.6020 O   0  0  0  0  0  0  0  0  0  0  0  0
   -0.1230   -2.8570   -2.5150 H   0  0  0  0  0  0  0  0  0  0  0  0
   -1.1920   -0.9440    3.2090 C   0  0  0  0  0  2  0  0  0  0  0  0
   -1.3100   -0.4470    4.6610 C   0  0  0  0  0  2  0  0  0  0  0  0
   -2.5490   -0.9590    5.3600 C   0  0  0  0  0  0  0  0  0  0  0  0
   -2.7920   -0.6070    6.6430 N   0  0  0  0  0  0  0  0  0  0  0  0
   -2.1390    0.0110    7.1480 H   0  0  0  0  0  0  0  0  0  0  0  0
   -3.6320   -0.9530    7.1290 H   0  0  0  0  0  0  0  0  0  0  0  0
   -3.3340   -1.6940    4.7770 O   0  0  0  0  0  0  0  0  0  0  0  0
    1.3320   -0.8930    3.1760 C   0  0  0  0  0  3  0  0  0  0  0  0
    2.1960    0.0050    3.6880 O   0  0  0  0  0  0  0  0  0  0  0  0
    2.9790   -0.2880    4.1120 H   0  0  0  0  0  0  0  0  0  0  0  0
    1.5980   -2.2090    3.2890 O   0  0  0  0  0  0  0  0  0  0  0  0
    1.0020   -2.8400    2.9360 H   0  0  0  0  0  0  0  0  0  0  0  0
  1 18  1  0  0  0  0
  1 11  1  1  0  0  0
  2  1  1  0  0  0  0
  3  4  1  0  0  0  0
  3  2  1  0  0  0  0
  5  7  1  0  0  0  0
  5  3  2  0  0  0  0
  6  5  1  0  0  0  0
  7  8  1  0  0  0  0
  8  2  1  0  0  0  0
  9  7  1  0  0  0  0
 10  9  1  0  0  0  0
 11 12  1  0  0  0  0
 12 13  1  0  0  0  0
 13 14  1  0  0  0  0
 14 16  1  0  0  0  0
 14 15  1  0  0  0  0
 17 13  2  0  0  0  0
 18 21  1  0  0  0  0
 18 19  1  0  0  0  0
 19 20  1  0  0  0  0
 22 21  1  0  0  0  0
M  END
>  <REMARK>
  8 active torsions:
  status: ('A' for Active; 'I' for Inactive)
    1  A    between atoms: N_5  and  O_6 
    2  A    between atoms: N_8  and  C_9 
    3  A    between atoms: C_9  and  C_10 
    4  A    between atoms: C_9  and  C_15 
    5  A    between atoms: C_10  and  C_11 
    6  A    between atoms: C_11  and  C_12 
       I    between atoms: C_12  and  N_13 
    7  A    between atoms: C_15  and  O_16 
    8  A    between atoms: C_15  and  O_17 

>  <TORSDO>
F 8

$$$$
C:\Users\siddh\.mgltools\PyRx\Ligands\ZINC000011535937_uff_E=594.93.pdbqt
 OpenBabel04182118313D

 13 13  0  0  1  0  0  0  0  0999 V2000
   -0.1540   -0.0200   -0.1680 O   0  0  0  0  0  0  0  0  0  0  0  0
    0.0170    1.4890    0.0620 S   0  0  0  0  0  0  0  0  0  0  0  0
   -0.8230    2.1620   -1.0340 O   0  0  0  0  0  0  0  0  0  0  0  0
   -0.4680    1.9790    1.7170 C   0  0  0  0  0  2  0  0  0  0  0  0
    0.7320    2.8470    2.1260 C   0  0  0  0  0  2  0  0  0  0  0  0
    1.9990    2.1620    1.5530 C   0  0  1  0  0  3  0  0  0  0  0  0
    1.7380    1.9850    0.0410 C   0  0  0  0  0  2  0  0  0  0  0  0
    3.2050    2.9390    1.8090 N   0  0  0  0  0  0  0  0  0  0  0  0
    3.1050    3.8800    2.2200 H   0  0  0  0  0  0  0  0  0  0  0  0
    4.5320    2.4630    1.5580 C   0  0  0  0  0  0  0  0  0  0  0  0
    4.7900    1.1030    1.1580 S   0  0  0  0  0  0  0  0  0  0  0  0
    5.9230    3.5410    1.8870 S   0  0  0  0  0  0  0  0  0  0  0  0
    5.4680    4.7710    2.2470 H   0  0  0  0  0  0  0  0  0  0  0  0
  1  2  2  0  0  0  0
  2  4  1  0  0  0  0
  3  2  2  0  0  0  0
  4  5  1  0  0  0  0
  6  8  1  6  0  0  0
  6  5  1  0  0  0  0
  7  2  1  0  0  0  0
  7  6  1  0  0  0  0
  8  9  1  0  0  0  0
 10  8  1  0  0  0  0
 10 12  1  0  0  0  0
 11 10  2  0  0  0  0
 12 13  1  0  0  0  0
M  END
>  <REMARK>
  3 active torsions:
  status: ('A' for Active; 'I' for Inactive)
    1  A    between atoms: C_6  and  N_7 
    2  A    between atoms: N_7  and  C_8 
    3  A    between atoms: C_8  and  S_10 

>  <TORSDO>
F 3

$$$$
C:\Users\siddh\.mgltools\PyRx\Ligands\ZINC000010336533_uff_E=393.61.pdbqt
 OpenBabel04182118313D

 20 21  0  0  0  0  0  0  0  0999 V2000
    0.0020    0.0260   -0.0210 C   0  0  0  0  0  0  0  0  0  0  0  0
   -1.1830   -0.7250    0.0800 C   0  0  0  0  0  3  0  0  0  0  0  0
   -1.1610   -2.1250    0.0990 C   0  0  0  0  0  0  0  0  0  0  0  0
    0.0680   -2.7860    0.0070 C   0  0  0  0  0  3  0  0  0  0  0  0
    1.2520   -2.0670   -0.1010 C   0  0  0  0  0  3  0  0  0  0  0  0
    1.2580   -0.6580   -0.1150 C   0  0  0  0  0  0  0  0  0  0  0  0
   -2.3890   -2.8690    0.2100 N   0  0  0  0  0  0  0  0  0  0  0  0
   -3.5950   -2.3330    0.2980 N   0  0  0  0  0  0  0  0  0  0  0  0
   -4.4890   -3.3060    0.3880 N   0  0  0  0  0  0  0  0  0  0  0  0
   -3.8700   -4.4800    0.3590 N   0  0  0  0  0  0  0  0  0  0  0  0
   -2.5600   -4.2020    0.2490 C   0  0  0  0  0  2  0  0  0  0  0  0
   -4.3010   -5.4030    0.4110 H   0  0  0  0  0  0  0  0  0  0  0  0
   -0.1220    1.4450   -0.0350 N   0  0  0  0  0  0  0  0  0  0  0  0
    0.6730    2.0850   -0.0590 H   0  0  0  0  0  0  0  0  0  0  0  0
   -1.0570    1.8760   -0.0190 H   0  0  0  0  0  0  0  0  0  0  0  0
    2.5950    0.0120   -0.2360 C   0  0  0  0  0  3  0  0  0  0  0  0
    3.7000   -0.7370   -0.4210 O   0  0  0  0  0  0  0  0  0  0  0  0
    4.5380   -0.3250   -0.4970 H   0  0  0  0  0  0  0  0  0  0  0  0
    2.7440    1.3440   -0.1620 O   0  0  0  0  0  0  0  0  0  0  0  0
    1.9950    1.8930   -0.0340 H   0  0  0  0  0  0  0  0  0  0  0  0
  1  2  1  0  0  0  0
  2  3  2  0  0  0  0
  3  7  1  0  0  0  0
  4  3  1  0  0  0  0
  5  4  2  0  0  0  0
  6  5  1  0  0  0  0
  6  1  2  0  0  0  0
  7 11  1  0  0  0  0
  7  8  1  0  0  0  0
  8  9  2  0  0  0  0
 10  9  1  0  0  0  0
 10 12  1  0  0  0  0
 11 10  1  0  0  0  0
 13  1  1  0  0  0  0
 13 15  1  0  0  0  0
 14 13  1  0  0  0  0
 16 19  1  0  0  0  0
 16  6  1  0  0  0  0
 17 16  1  0  0  0  0
 18 17  1  0  0  0  0
 19 20  1  0  0  0  0
M  END
>  <REMARK>
  5 active torsions:
  status: ('A' for Active; 'I' for Inactive)
    1  A    between atoms: N_1  and  C_2 
    2  A    between atoms: C_4  and  N_5 
    3  A    between atoms: C_13  and  C_14 
    4  A    between atoms: C_14  and  O_15 
    5  A    between atoms: C_14  and  O_16 

>  <TORSDO>
F 5

$$$$
C:\Users\siddh\.mgltools\PyRx\Ligands\ZINC000009428918_uff_E=136.70.pdbqt
 OpenBabel04182118313D

 17 17  0  0  0  0  0  0  0  0999 V2000
   -0.0030    1.4680   -0.0750 C   0  0  0  0  0  1  0  0  0  0  0  0
    0.0080    0.0010    0.0200 N   0  0  0  0  0  0  0  0  0  0  0  0
   -0.0090   -0.7480   -1.1170 C   0  0  0  0  0  2  0  0  0  0  0  0
    0.0240   -2.1470   -1.0690 C   0  0  0  0  0  0  0  0  0  0  0  0
    0.0410   -2.7620    0.2060 C   0  0  0  0  0  0  0  0  0  0  0  0
    0.0510   -3.9750    0.3050 O   0  0  0  0  0  0  0  0  0  0  0  0
    0.0460   -1.9860    1.3510 N   0  0  0  0  0  0  0  0  0  0  0  0
    0.0530   -2.6090    2.6890 C   0  0  0  0  0  1  0  0  0  0  0  0
    0.0430   -0.6090    1.2550 C   0  0  0  0  0  0  0  0  0  0  0  0
    0.0600    0.0730    2.2690 O   0  0  0  0  0  0  0  0  0  0  0  0
    0.0510   -2.8760   -2.3860 C   0  0  0  0  0  3  0  0  0  0  0  0
    0.1600   -4.2110   -2.5580 C   0  0  0  0  0  3  0  0  0  0  0  0
    0.2060   -4.8170   -3.9060 C   0  0  0  0  0  0  0  0  0  0  0  0
    0.1390   -4.0530   -5.0140 O   0  0  0  0  0  0  0  0  0  0  0  0
    0.1700   -4.4520   -5.8610 H   0  0  0  0  0  0  0  0  0  0  0  0
    0.3270   -6.1520   -4.0280 O   0  0  0  0  0  0  0  0  0  0  0  0
    0.3740   -6.6900   -3.2630 H   0  0  0  0  0  0  0  0  0  0  0  0
  1  2  1  0  0  0  0
  2  9  1  0  0  0  0
  3  4  1  0  0  0  0
  3  2  1  0  0  0  0
  4  5  1  0  0  0  0
  5  6  2  0  0  0  0
  5  7  1  0  0  0  0
  7  8  1  0  0  0  0
  9  7  1  0  0  0  0
  9 10  2  0  0  0  0
 11  4  2  0  0  0  0
 12 11  1  0  0  0  0
 13 12  2  0  0  0  0
 14 13  1  0  0  0  0
 15 14  1  0  0  0  0
 16 13  1  0  0  0  0
 16 17  1  0  0  0  0
M  END
>  <REMARK>
  4 active torsions:
  status: ('A' for Active; 'I' for Inactive)
    1  A    between atoms: C_4  and  C_5 
    2  A    between atoms: C_6  and  C_7 
    3  A    between atoms: C_7  and  O_8 
    4  A    between atoms: C_7  and  O_9 

>  <TORSDO>
F 4

$$$$
C:\Users\siddh\.mgltools\PyRx\Ligands\ZINC000009428862_uff_E=569.08.pdbqt
 OpenBabel04182118313D

 17 18  0  0  0  0  0  0  0  0999 V2000
    0.0290   -0.1150   -0.0010 O   0  0  0  0  0  0  0  0  0  0  0  0
   -0.0040    1.2330   -0.0030 C   0  0  0  0  0  3  0  0  0  0  0  0
    0.0910   -1.0500    0.0030 H   0  0  0  0  0  0  0  0  0  0  0  0
    1.1480    1.9270   -0.0000 O   0  0  0  0  0  0  0  0  0  0  0  0
    1.1310    2.8630   -0.0020 H   0  0  0  0  0  0  0  0  0  0  0  0
   -1.3110    1.9680   -0.0020 C   0  0  0  0  0  2  0  0  0  0  0  0
   -2.4180    1.0260    0.0150 N   0  0  0  0  0  0  0  0  0  0  0  0
   -3.0230    0.4750    1.0850 C   0  0  0  0  0  0  0  0  0  0  0  0
   -3.9810   -0.3740    0.6640 N   0  0  0  0  0  0  0  0  0  0  0  0
   -2.7400    0.7070    2.2480 O   0  0  0  0  0  0  0  0  0  0  0  0
   -3.9510   -0.3400   -0.6630 N   0  0  0  0  0  0  0  0  0  0  0  0
   -3.0020    0.5050   -1.0560 N   0  0  0  0  0  0  0  0  0  0  0  0
   -4.8760   -1.1720    1.4350 C   0  0  0  0  0  0  0  0  0  0  0  0
   -4.9680   -1.2540    3.0880 S   0  0  0  0  0  0  0  0  0  0  0  0
   -6.2090   -2.3470    3.2240 C   0  0  0  0  0  3  0  0  0  0  0  0
   -6.5920   -2.6860    1.9200 C   0  0  0  0  0  3  0  0  0  0  0  0
   -5.8410   -2.0240    0.9140 C   0  0  0  0  0  3  0  0  0  0  0  0
  1  3  1  0  0  0  0
  2  6  1  0  0  0  0
  2  1  1  0  0  0  0
  2  4  1  0  0  0  0
  5  4  1  0  0  0  0
  6  7  1  0  0  0  0
  7  8  1  0  0  0  0
  8 10  2  0  0  0  0
  9  8  1  0  0  0  0
  9 13  1  0  0  0  0
 11  9  1  0  0  0  0
 12 11  2  0  0  0  0
 12  7  1  0  0  0  0
 13 14  1  0  0  0  0
 14 15  1  0  0  0  0
 16 15  2  0  0  0  0
 17 13  2  0  0  0  0
 17 16  1  0  0  0  0
M  END
>  <REMARK>
  4 active torsions:
  status: ('A' for Active; 'I' for Inactive)
    1  A    between atoms: C_2  and  O_3 
    2  A    between atoms: C_2  and  C_4 
    3  A    between atoms: C_4  and  N_5 
    4  A    between atoms: N_8  and  C_9 

>  <TORSDO>
F 4

$$$$
C:\Users\siddh\.mgltools\PyRx\Ligands\ZINC000009190225_uff_E=187.72.pdbqt
 OpenBabel04182118313D

 19 19  0  0  0  0  0  0  0  0999 V2000
   -3.1330   -4.2920    0.0290 N   0  0  0  0  0  0  0  0  0  0  0  0
   -3.0370   -4.9360   -1.1880 C   0  0  0  0  0  0  0  0  0  0  0  0
   -3.2690   -4.3360   -2.2260 O   0  0  0  0  0  0  0  0  0  0  0  0
   -2.6750   -6.2530   -1.2430 N   0  0  0  0  0  0  0  0  0  0  0  0
   -2.3850   -6.9580   -0.1210 C   0  0  0  0  0  0  0  0  0  0  0  0
   -2.4510   -6.3400    1.1490 C   0  0  0  0  0  0  0  0  0  0  0  0
   -2.8460   -4.9790    1.1950 C   0  0  0  0  0  0  0  0  0  0  0  0
   -2.9260   -4.3990    2.2640 O   0  0  0  0  0  0  0  0  0  0  0  0
   -2.6080   -6.7280   -2.1730 H   0  0  0  0  0  0  0  0  0  0  0  0
   -3.5070   -2.8650    0.0850 C   0  0  0  0  0  2  0  0  0  0  0  0
   -2.2520   -1.9880   -0.0030 C   0  0  0  0  0  2  0  0  0  0  0  0
   -2.6120   -0.5050    0.0510 C   0  0  0  0  0  2  0  0  0  0  0  0
   -1.4280    0.2570   -0.0400 O   0  0  0  0  0  0  0  0  0  0  0  0
   -1.7550    1.6270   -0.0060 C   0  0  0  0  0  1  0  0  0  0  0  0
   -2.0720   -7.1140    2.3910 C   0  0  0  0  0  0  0  0  0  0  0  0
   -2.0400   -6.4870    3.7590 C   0  0  0  0  0  1  0  0  0  0  0  0
   -1.7350   -8.2850    2.2980 O   0  0  0  0  0  0  0  0  0  0  0  0
   -2.0220   -8.2480   -0.2430 O   0  0  0  0  0  0  0  0  0  0  0  0
   -1.9830   -8.6460   -1.0900 H   0  0  0  0  0  0  0  0  0  0  0  0
  1 10  1  0  0  0  0
  1  7  1  0  0  0  0
  2  1  1  0  0  0  0
  3  2  2  0  0  0  0
  4  2  1  0  0  0  0
  4  5  1  0  0  0  0
  5  6  2  0  0  0  0
  6  7  1  0  0  0  0
  6 15  1  0  0  0  0
  7  8  2  0  0  0  0
  9  4  1  0  0  0  0
 11 12  1  0  0  0  0
 11 10  1  0  0  0  0
 13 14  1  0  0  0  0
 13 12  1  0  0  0  0
 15 16  1  0  0  0  0
 17 15  2  0  0  0  0
 18  5  1  0  0  0  0
 19 18  1  0  0  0  0
M  END
>  <REMARK>
  6 active torsions:
  status: ('A' for Active; 'I' for Inactive)
    1  A    between atoms: O_2  and  C_3 
    2  A    between atoms: C_3  and  C_4 
    3  A    between atoms: C_4  and  C_5 
    4  A    between atoms: C_5  and  N_6 
    5  A    between atoms: C_10  and  O_11 
    6  A    between atoms: C_12  and  C_13 

>  <TORSDO>
F 6

$$$$
C:\Users\siddh\.mgltools\PyRx\Ligands\ZINC000008983594_uff_E=548.68.pdbqt
 OpenBabel04182118313D

 18 20  0  0  0  0  0  0  0  0999 V2000
   -0.0150   -0.0630    0.0130 O   0  0  0  0  0  0  0  0  0  0  0  0
   -0.0370    1.1570    0.0400 C   0  0  0  0  0  0  0  0  0  0  0  0
   -1.1560    1.8950    0.0600 N   0  0  0  0  0  0  0  0  0  0  0  0
   -0.7550    3.1900    0.0700 C   0  0  0  0  0  0  0  0  0  0  0  0
   -1.5520    4.1100    0.0840 O   0  0  0  0  0  0  0  0  0  0  0  0
    0.6120    3.3270    0.0550 N   0  0  0  0  0  0  0  0  0  0  0  0
    1.0960    2.0560    0.0390 C   0  0  0  0  0  0  0  0  0  0  0  0
    2.2680    1.7230    0.0100 O   0  0  0  0  0  0  0  0  0  0  0  0
   -2.0830    1.5620    0.0670 H   0  0  0  0  0  0  0  0  0  0  0  0
    1.3800    4.5670    0.0260 C   0  0  0  0  0  0  0  0  0  0  0  0
    0.7350    5.8420   -0.0400 C   0  0  0  0  0  3  0  0  0  0  0  0
    1.5170    6.9870   -0.1270 C   0  0  0  0  0  0  0  0  0  0  0  0
    2.8480    6.9480   -0.1350 C   0  0  0  0  0  0  0  0  0  0  0  0
    1.1140    8.2530   -0.2360 O   0  0  0  0  0  0  0  0  0  0  0  0
    3.5500    5.7580   -0.0480 C   0  0  0  0  0  3  0  0  0  0  0  0
    3.3270    8.1860   -0.2530 O   0  0  0  0  0  0  0  0  0  0  0  0
    2.8170    4.5600    0.0310 C   0  0  0  0  0  3  0  0  0  0  0  0
    2.2450    9.0680   -0.3400 C   0  0  0  0  0  2  0  0  0  0  0  0
  1  2  2  0  0  0  0
  2  3  1  0  0  0  0
  3  9  1  0  0  0  0
  3  4  1  0  0  0  0
  4  5  2  0  0  0  0
  6  4  1  0  0  0  0
  7  2  1  0  0  0  0
  7  6  1  0  0  0  0
  8  7  2  0  0  0  0
 10 17  1  0  0  0  0
 10  6  1  0  0  0  0
 11 10  2  0  0  0  0
 12 11  1  0  0  0  0
 13 12  2  0  0  0  0
 13 15  1  0  0  0  0
 14 12  1  0  0  0  0
 15 17  2  0  0  0  0
 16 13  1  0  0  0  0
 18 16  1  0  0  0  0
 18 14  1  0  0  0  0
M  END
>  <REMARK>
  1 active torsions:
  status: ('A' for Active; 'I' for Inactive)
    1  A    between atoms: N_6  and  C_7 

>  <TORSDO>
F 1

$$$$
C:\Users\siddh\.mgltools\PyRx\Ligands\ZINC000008914725_uff_E=374.35.pdbqt
 OpenBabel04182118313D

 19 20  0  0  1  0  0  0  0  0999 V2000
   -0.0130    1.4500    0.0100 C   0  0  0  0  0  1  0  0  0  0  0  0
    0.0310   -0.0460    0.0020 C   0  0  1  0  0  3  0  0  0  0  0  0
   -1.0690   -0.8410    0.0100 N   0  0  0  0  0  0  0  0  0  0  0  0
   -2.0440   -0.5440    0.0220 H   0  0  0  0  0  0  0  0  0  0  0  0
   -0.6100   -2.0800   -0.0020 N   0  0  0  0  0  0  0  0  0  0  0  0
    0.7190   -2.0380   -0.0180 C   0  0  2  0  0  3  0  0  0  0  0  0
    1.4710   -3.1650   -0.0340 N   0  0  0  0  0  0  0  0  0  0  0  0
    2.4890   -3.1060   -0.0430 H   0  0  0  0  0  0  0  0  0  0  0  0
    0.8480   -4.3860   -0.0390 C   0  0  0  0  0  0  0  0  0  0  0  0
    1.6890   -5.6320   -0.0440 C   0  0  0  0  0  1  0  0  0  0  0  0
   -0.5790   -4.4630   -0.0210 C   0  0  0  0  0  0  0  0  0  0  0  0
   -1.3100   -3.2510    0.0020 C   0  0  0  0  0  0  0  0  0  0  0  0
   -2.5300   -3.2450    0.0170 O   0  0  0  0  0  0  0  0  0  0  0  0
    1.1800   -0.7750   -0.0150 N   0  0  0  0  0  0  0  0  0  0  0  0
    2.1120   -0.4580   -0.0230 H   0  0  0  0  0  0  0  0  0  0  0  0
   -1.2970   -5.7980   -0.0130 C   0  0  0  0  0  2  0  0  0  0  0  0
   -1.6390   -6.2220    1.4130 C   0  0  0  0  0  2  0  0  0  0  0  0
   -2.2810   -7.4660    1.3750 O   0  0  0  0  0  0  0  0  0  0  0  0
   -2.4740   -7.7080    2.3170 H   0  0  0  0  0  0  0  0  0  0  0  0
  2  1  1  6  0  0  0
  2  3  1  0  0  0  0
  3  4  1  0  0  0  0
  5 12  1  0  0  0  0
  5  3  1  0  0  0  0
  6  7  1  1  0  0  0
  6 14  1  0  0  0  0
  6  5  1  0  0  0  0
  8  7  1  0  0  0  0
  9  7  1  0  0  0  0
  9 11  2  0  0  0  0
 10  9  1  0  0  0  0
 11 16  1  0  0  0  0
 11 12  1  0  0  0  0
 12 13  2  0  0  0  0
 14  2  1  0  0  0  0
 15 14  1  0  0  0  0
 16 17  1  0  0  0  0
 18 17  1  0  0  0  0
 18 19  1  0  0  0  0
M  END
>  <REMARK>
  3 active torsions:
  status: ('A' for Active; 'I' for Inactive)
    1  A    between atoms: C_11  and  C_12 
    2  A    between atoms: C_12  and  C_13 
    3  A    between atoms: C_13  and  O_14 

>  <TORSDO>
F 3

$$$$
C:\Users\siddh\.mgltools\PyRx\Ligands\ZINC000008846310_uff_E=95.97.pdbqt
 OpenBabel04182118313D

 19 19  0  0  1  0  0  0  0  0999 V2000
   -0.0280    0.0120    0.0010 C   0  0  0  0  0  0  0  0  0  0  0  0
   -1.2230   -0.7110    0.0040 C   0  0  0  0  0  3  0  0  0  0  0  0
   -1.1600   -2.1050   -0.0040 C   0  0  0  0  0  0  0  0  0  0  0  0
   -2.1860   -2.7630   -0.0020 O   0  0  0  0  0  0  0  0  0  0  0  0
    0.0600   -2.7320   -0.0140 N   0  0  0  0  0  0  0  0  0  0  0  0
    1.2110   -2.0070   -0.0160 C   0  0  2  0  0  3  0  0  0  0  0  0
    1.1570   -0.6480   -0.0090 N   0  0  0  0  0  0  0  0  0  0  0  0
    2.0260   -0.1140   -0.0110 H   0  0  0  0  0  0  0  0  0  0  0  0
    0.1080   -3.7760   -0.0200 H   0  0  0  0  0  0  0  0  0  0  0  0
    2.7920   -2.8660   -0.0290 S   0  0  0  0  0  0  0  0  0  0  0  0
    3.8830   -1.3960   -0.0240 C   0  0  0  0  0  2  0  0  0  0  0  0
    5.3240   -1.8120   -0.0330 C   0  0  0  0  0  3  0  0  0  0  0  0
    5.6690   -3.1150   -0.0430 O   0  0  0  0  0  0  0  0  0  0  0  0
    6.5730   -3.3600   -0.0490 H   0  0  0  0  0  0  0  0  0  0  0  0
    6.2870   -0.8720   -0.0320 O   0  0  0  0  0  0  0  0  0  0  0  0
    6.0550    0.0360   -0.0250 H   0  0  0  0  0  0  0  0  0  0  0  0
   -0.0410    1.4260    0.0090 N   0  0  0  0  0  0  0  0  0  0  0  0
    0.8460    1.9490    0.0060 H   0  0  0  0  0  0  0  0  0  0  0  0
   -0.9320    1.9440    0.0170 H   0  0  0  0  0  0  0  0  0  0  0  0
  1  2  2  0  0  0  0
  1 17  1  0  0  0  0
  3  4  2  0  0  0  0
  3  2  1  0  0  0  0
  5  3  1  0  0  0  0
  6 10  1  6  0  0  0
  6  5  1  0  0  0  0
  6  7  1  0  0  0  0
  7  1  1  0  0  0  0
  8  7  1  0  0  0  0
  9  5  1  0  0  0  0
 10 11  1  0  0  0  0
 12 15  1  0  0  0  0
 12 11  1  0  0  0  0
 13 12  1  0  0  0  0
 14 13  1  0  0  0  0
 15 16  1  0  0  0  0
 17 19  1  0  0  0  0
 18 17  1  0  0  0  0
M  END
>  <REMARK>
  6 active torsions:
  status: ('A' for Active; 'I' for Inactive)
    1  A    between atoms: N_1  and  C_2 
    2  A    between atoms: C_7  and  S_8 
    3  A    between atoms: S_8  and  C_9 
    4  A    between atoms: C_9  and  C_10 
    5  A    between atoms: C_10  and  O_11 
    6  A    between atoms: C_10  and  O_12 

>  <TORSDO>
F 6

$$$$
C:\Users\siddh\.mgltools\PyRx\Ligands\ZINC000008754431_uff_E=154.93.pdbqt
 OpenBabel04182118313D

 21 22  0  0  0  0  0  0  0  0999 V2000
    0.6600   -0.4780   -1.1970 N   0  0  0  0  0  0  0  0  0  0  0  0
   -0.0740   -0.6950   -2.3490 C   0  0  0  0  0  0  0  0  0  0  0  0
   -1.2780   -0.4930   -2.3610 O   0  0  0  0  0  0  0  0  0  0  0  0
    0.5430   -1.1360   -3.4900 N   0  0  0  0  0  0  0  0  0  0  0  0
    1.8930   -1.3680   -3.5190 C   0  0  0  0  0  0  0  0  0  0  0  0
    2.4160   -1.7590   -4.5500 O   0  0  0  0  0  0  0  0  0  0  0  0
    2.6590   -1.1500   -2.3640 C   0  0  0  0  0  0  0  0  0  0  0  0
    4.0490   -1.3660   -2.3350 C   0  0  0  0  0  3  0  0  0  0  0  0
    4.7700   -1.1310   -1.1530 C   0  0  0  0  0  0  0  0  0  0  0  0
    4.0820   -0.6790   -0.0200 C   0  0  0  0  0  2  0  0  0  0  0  0
    2.7430   -0.4750   -0.0690 N   0  0  0  0  0  0  0  0  0  0  0  0
    2.2650   -0.1440    0.7690 H   0  0  0  0  0  0  0  0  0  0  0  0
    2.0130   -0.6970   -1.1980 C   0  0  0  0  0  0  0  0  0  0  0  0
   -0.0280   -1.2960   -4.3520 H   0  0  0  0  0  0  0  0  0  0  0  0
    6.2310   -1.3530   -1.0940 C   0  0  0  0  0  3  0  0  0  0  0  0
    6.9000   -1.7870   -2.1790 O   0  0  0  0  0  0  0  0  0  0  0  0
    7.8250   -1.9260   -2.1350 H   0  0  0  0  0  0  0  0  0  0  0  0
    6.9070   -1.1240    0.0490 O   0  0  0  0  0  0  0  0  0  0  0  0
    6.4520   -0.8220    0.8100 H   0  0  0  0  0  0  0  0  0  0  0  0
   -0.0100    0.0100    0.0220 C   0  0  0  0  0  2  0  0  0  0  0  0
   -0.0250    1.5330    0.0240 C   0  0  0  0  0  1  0  0  0  0  0  0
  1 20  1  0  0  0  0
  2  1  1  0  0  0  0
  3  2  2  0  0  0  0
  4  2  1  0  0  0  0
  5  4  1  0  0  0  0
  5  7  1  0  0  0  0
  6  5  2  0  0  0  0
  7  8  1  0  0  0  0
  7 13  2  0  0  0  0
  8  9  2  0  0  0  0
  9 15  1  0  0  0  0
  9 10  1  0  0  0  0
 11 10  1  0  0  0  0
 11 12  1  0  0  0  0
 13  1  1  0  0  0  0
 13 11  1  0  0  0  0
 14  4  1  0  0  0  0
 15 18  1  0  0  0  0
 16 17  1  0  0  0  0
 16 15  1  0  0  0  0
 18 19  1  0  0  0  0
 20 21  1  0  0  0  0
M  END
>  <REMARK>
  4 active torsions:
  status: ('A' for Active; 'I' for Inactive)
    1  A    between atoms: C_2  and  N_3 
    2  A    between atoms: C_11  and  C_12 
    3  A    between atoms: C_12  and  O_13 
    4  A    between atoms: C_12  and  O_14 

>  <TORSDO>
F 4

$$$$
C:\Users\siddh\.mgltools\PyRx\Ligands\ZINC000008754385_uff_E=154.41.pdbqt
 OpenBabel04182118313D

 20 21  0  0  0  0  0  0  0  0999 V2000
   -0.0160    1.4880    0.0120 C   0  0  0  0  0  1  0  0  0  0  0  0
   -0.0030    0.0170   -0.0180 N   0  0  0  0  0  0  0  0  0  0  0  0
    0.0080   -0.6500   -1.2290 C   0  0  0  0  0  0  0  0  0  0  0  0
    0.0020   -0.0250   -2.2780 O   0  0  0  0  0  0  0  0  0  0  0  0
    0.0260   -2.0200   -1.2650 N   0  0  0  0  0  0  0  0  0  0  0  0
    0.0390   -2.7570   -0.1110 C   0  0  0  0  0  0  0  0  0  0  0  0
    0.0560   -3.9760   -0.1740 O   0  0  0  0  0  0  0  0  0  0  0  0
    0.0360   -2.1030    1.1300 C   0  0  0  0  0  0  0  0  0  0  0  0
    0.0520   -2.8060    2.3480 C   0  0  0  0  0  3  0  0  0  0  0  0
    0.0480   -2.1020    3.5630 C   0  0  0  0  0  0  0  0  0  0  0  0
    0.0300   -0.7030    3.5340 C   0  0  0  0  0  2  0  0  0  0  0  0
    0.0160   -0.0440    2.3500 N   0  0  0  0  0  0  0  0  0  0  0  0
    0.0060    0.9760    2.3550 H   0  0  0  0  0  0  0  0  0  0  0  0
    0.0160   -0.6950    1.1530 C   0  0  0  0  0  0  0  0  0  0  0  0
    0.0310   -2.5080   -2.1910 H   0  0  0  0  0  0  0  0  0  0  0  0
    0.0620   -2.8170    4.8580 C   0  0  0  0  0  3  0  0  0  0  0  0
    0.0810   -4.1630    4.8950 O   0  0  0  0  0  0  0  0  0  0  0  0
    0.0900   -4.6090    5.7190 H   0  0  0  0  0  0  0  0  0  0  0  0
    0.0570   -2.1250    6.0150 O   0  0  0  0  0  0  0  0  0  0  0  0
    0.0450   -1.1880    6.0010 H   0  0  0  0  0  0  0  0  0  0  0  0
  2  1  1  0  0  0  0
  2 14  1  0  0  0  0
  3  2  1  0  0  0  0
  4  3  2  0  0  0  0
  5  3  1  0  0  0  0
  5  6  1  0  0  0  0
  6  8  1  0  0  0  0
  7  6  2  0  0  0  0
  8 14  2  0  0  0  0
  8  9  1  0  0  0  0
  9 10  2  0  0  0  0
 10 16  1  0  0  0  0
 11 10  1  0  0  0  0
 12 13  1  0  0  0  0
 12 11  1  0  0  0  0
 14 12  1  0  0  0  0
 15  5  1  0  0  0  0
 16 17  1  0  0  0  0
 16 19  1  0  0  0  0
 17 18  1  0  0  0  0
 20 19  1  0  0  0  0
M  END
>  <REMARK>
  3 active torsions:
  status: ('A' for Active; 'I' for Inactive)
    1  A    between atoms: C_10  and  C_11 
    2  A    between atoms: C_11  and  O_12 
    3  A    between atoms: C_11  and  O_13 

>  <TORSDO>
F 3

$$$$
C:\Users\siddh\.mgltools\PyRx\Ligands\ZINC000008731896_uff_E=630.11.pdbqt
 OpenBabel04182118313D

 16 16  0  0  0  0  0  0  0  0999 V2000
    2.4950   -0.4040   -1.1800 C   0  0  0  0  0  0  0  0  0  0  0  0
    3.4380   -1.1430   -0.4950 C   0  0  0  0  0  3  0  0  0  0  0  0
    4.6460   -0.5240   -0.7340 C   0  0  0  0  0  3  0  0  0  0  0  0
    4.3660    0.5540   -1.5500 C   0  0  0  0  0  0  0  0  0  0  0  0
    3.0750    0.5980   -1.7990 O   0  0  0  0  0  0  0  0  0  0  0  0
    0.7340   -0.7410   -1.2340 S   0  0  0  0  0  0  0  0  0  0  0  0
    0.4420   -2.2460   -1.1270 O   0  0  0  0  0  0  0  0  0  0  0  0
    0.1090   -0.4130   -2.5980 O   0  0  0  0  0  0  0  0  0  0  0  0
   -0.3320    0.0090   -0.0310 N   0  0  0  0  0  0  0  0  0  0  0  0
   -0.0860    1.4480    0.0170 C   0  0  0  0  0  1  0  0  0  0  0  0
   -0.1180   -0.4120    0.9020 H   0  0  0  0  0  0  0  0  0  0  0  0
    5.3400    1.5220   -2.0730 C   0  0  0  0  0  3  0  0  0  0  0  0
    6.6450    1.4090   -1.7590 O   0  0  0  0  0  0  0  0  0  0  0  0
    7.2630    2.0280   -2.0950 H   0  0  0  0  0  0  0  0  0  0  0  0
    4.9290    2.5290   -2.8660 O   0  0  0  0  0  0  0  0  0  0  0  0
    4.0220    2.6120   -3.0870 H   0  0  0  0  0  0  0  0  0  0  0  0
  1  2  2  0  0  0  0
  3  2  1  0  0  0  0
  4  3  2  0  0  0  0
  5  4  1  0  0  0  0
  5  1  1  0  0  0  0
  6  1  1  0  0  0  0
  6  7  2  0  0  0  0
  6  9  1  0  0  0  0
  8  6  2  0  0  0  0
  9 10  1  0  0  0  0
  9 11  1  0  0  0  0
 12 13  1  0  0  0  0
 12  4  1  0  0  0  0
 14 13  1  0  0  0  0
 15 12  1  0  0  0  0
 16 15  1  0  0  0  0
M  END
>  <REMARK>
  5 active torsions:
  status: ('A' for Active; 'I' for Inactive)
    1  A    between atoms: N_2  and  S_3 
    2  A    between atoms: S_3  and  C_6 
    3  A    between atoms: C_9  and  C_10 
    4  A    between atoms: C_10  and  O_11 
    5  A    between atoms: C_10  and  O_12 

>  <TORSDO>
F 5

$$$$
C:\Users\siddh\.mgltools\PyRx\Ligands\ZINC000008729807_uff_E=60.33.pdbqt
 OpenBabel04182118313D

 16 15  0  0  1  0  0  0  0  0999 V2000
    1.6570   -2.1930    2.3540 C   0  0  2  0  0  3  0  0  0  0  0  0
    1.3520   -1.3140    1.1640 C   0  0  0  0  0  0  0  0  0  0  0  0
    0.9000   -1.8070    0.1400 O   0  0  0  0  0  0  0  0  0  0  0  0
    1.5600    0.0290    1.2490 O   0  0  0  0  0  0  0  0  0  0  0  0
    1.3140    0.8840    0.1910 C   0  0  0  0  0  2  0  0  0  0  0  0
    1.5600    2.3280    0.6020 C   0  0  0  0  0  1  0  0  0  0  0  0
    3.1610   -2.1410    2.7040 C   0  0  0  0  0  2  0  0  0  0  0  0
    4.0700   -2.6340    1.6030 C   0  0  0  0  0  3  0  0  0  0  0  0
    3.5700   -3.1110    0.4440 O   0  0  0  0  0  0  0  0  0  0  0  0
    4.1500   -3.4130   -0.2270 H   0  0  0  0  0  0  0  0  0  0  0  0
    5.4040   -2.5960    1.7770 O   0  0  0  0  0  0  0  0  0  0  0  0
    5.7620   -2.2670    2.5780 H   0  0  0  0  0  0  0  0  0  0  0  0
    1.2540   -3.4970    2.0960 O   0  0  0  0  0  0  0  0  0  0  0  0
    1.0290   -4.4310    3.0590 C   0  0  0  0  0  0  0  0  0  0  0  0
    0.6560   -5.8230    2.6600 C   0  0  0  0  0  1  0  0  0  0  0  0
    1.0980   -4.1370    4.2440 O   0  0  0  0  0  0  0  0  0  0  0  0
  1  7  1  6  0  0  0
  2  4  1  0  0  0  0
  2  1  1  0  0  0  0
  3  2  2  0  0  0  0
  5  6  1  0  0  0  0
  5  4  1  0  0  0  0
  8 11  1  0  0  0  0
  8  7  1  0  0  0  0
  9  8  1  0  0  0  0
 10  9  1  0  0  0  0
 11 12  1  0  0  0  0
 13  1  1  0  0  0  0
 13 14  1  0  0  0  0
 14 16  2  0  0  0  0
 15 14  1  0  0  0  0
M  END
>  <REMARK>
  9 active torsions:
  status: ('A' for Active; 'I' for Inactive)
    1  A    between atoms: C_2  and  O_3 
    2  A    between atoms: O_3  and  C_4 
    3  A    between atoms: C_4  and  C_6 
    4  A    between atoms: C_6  and  C_7 
    5  A    between atoms: C_6  and  O_11 
    6  A    between atoms: C_7  and  C_8 
    7  A    between atoms: C_8  and  O_9 
    8  A    between atoms: C_8  and  O_10 
    9  A    between atoms: O_11  and  C_12 

>  <TORSDO>
F 9

$$$$
C:\Users\siddh\.mgltools\PyRx\Ligands\ZINC000008729716_uff_E=311.47.pdbqt
 OpenBabel04182118313D

 17 17  0  0  0  0  0  0  0  0999 V2000
    0.0690    1.4450    0.0550 C   0  0  0  0  0  1  0  0  0  0  0  0
   -0.0100   -0.0470    0.0410 C   0  0  0  0  0  0  0  0  0  0  0  0
   -1.1670   -0.8040    0.0020 C   0  0  0  0  0  0  0  0  0  0  0  0
   -0.7280   -2.1060   -0.0440 C   0  0  0  0  0  0  0  0  0  0  0  0
   -1.4420   -3.0940   -0.0860 O   0  0  0  0  0  0  0  0  0  0  0  0
    0.6370   -2.1220   -0.0220 N   0  0  0  0  0  0  0  0  0  0  0  0
    1.0660   -0.8660    0.0240 N   0  0  0  0  0  0  0  0  0  0  0  0
    2.0080   -0.5790    0.0430 H   0  0  0  0  0  0  0  0  0  0  0  0
    1.5410   -3.2580   -0.0410 C   0  0  0  0  0  0  0  0  0  0  0  0
    1.0380   -4.6110   -0.0610 S   0  0  0  0  0  0  0  0  0  0  0  0
    2.9460   -3.0430   -0.0310 N   0  0  0  0  0  0  0  0  0  0  0  0
    3.3300   -2.0870   -0.0190 H   0  0  0  0  0  0  0  0  0  0  0  0
    3.6050   -3.8370   -0.0400 H   0  0  0  0  0  0  0  0  0  0  0  0
   -2.5860   -0.3130   -0.0060 C   0  0  0  0  0  2  0  0  0  0  0  0
   -3.1520   -0.3490   -1.4220 C   0  0  0  0  0  2  0  0  0  0  0  0
   -4.4750    0.1060   -1.4030 O   0  0  0  0  0  0  0  0  0  0  0  0
   -4.7660    0.1400   -2.3510 H   0  0  0  0  0  0  0  0  0  0  0  0
  2  1  1  0  0  0  0
  3  2  2  0  0  0  0
  4  6  1  0  0  0  0
  4  3  1  0  0  0  0
  5  4  2  0  0  0  0
  6  7  1  0  0  0  0
  7  2  1  0  0  0  0
  7  8  1  0  0  0  0
  9 11  1  0  0  0  0
  9  6  1  0  0  0  0
 10  9  2  0  0  0  0
 11 12  1  0  0  0  0
 13 11  1  0  0  0  0
 14  3  1  0  0  0  0
 15 16  1  0  0  0  0
 15 14  1  0  0  0  0
 17 16  1  0  0  0  0
M  END
>  <REMARK>
  5 active torsions:
  status: ('A' for Active; 'I' for Inactive)
    1  A    between atoms: C_3  and  C_4 
    2  A    between atoms: C_4  and  C_5 
    3  A    between atoms: C_5  and  O_6 
    4  A    between atoms: N_9  and  C_10 
    5  A    between atoms: C_10  and  N_11 

>  <TORSDO>
F 5

$$$$
C:\Users\siddh\.mgltools\PyRx\Ligands\ZINC000008653863_uff_E=83.93.pdbqt
 OpenBabel04182118313D

 20 20  0  0  1  0  0  0  0  0999 V2000
   -4.3680   -5.9420    0.0130 C   0  0  2  0  0  3  0  0  0  0  0  0
   -3.2940   -6.7790    0.0020 N   0  0  0  0  0  0  0  0  0  0  0  0
   -2.3540   -6.3840   -0.0030 H   0  0  0  0  0  0  0  0  0  0  0  0
   -3.4430   -8.1050   -0.0040 N   0  0  0  0  0  0  0  0  0  0  0  0
   -4.6940   -8.6650    0.0020 C   0  0  0  0  0  0  0  0  0  0  0  0
   -4.8260   -9.8760   -0.0030 O   0  0  0  0  0  0  0  0  0  0  0  0
   -5.7970   -7.8580    0.0130 N   0  0  0  0  0  0  0  0  0  0  0  0
   -5.6540   -6.4970    0.0190 C   0  0  0  0  0  0  0  0  0  0  0  0
   -6.6420   -5.7860    0.0290 O   0  0  0  0  0  0  0  0  0  0  0  0
   -2.5950   -8.7160   -0.0120 H   0  0  0  0  0  0  0  0  0  0  0  0
   -6.6970   -8.2560    0.0170 H   0  0  0  0  0  0  0  0  0  0  0  0
   -4.1770   -4.5300    0.0180 N   0  0  0  0  0  0  0  0  0  0  0  0
   -4.9940   -3.9020    0.0280 H   0  0  0  0  0  0  0  0  0  0  0  0
   -2.8430   -3.9700    0.0080 C   0  0  0  0  0  2  0  0  0  0  0  0
   -2.8650   -2.4340    0.0160 C   0  0  0  0  0  2  0  0  0  0  0  0
   -1.4650   -1.8710    0.0060 C   0  0  0  0  0  0  0  0  0  0  0  0
   -0.5000   -2.6270   -0.0070 O   0  0  0  0  0  0  0  0  0  0  0  0
   -1.2710   -0.5260    0.0110 O   0  0  0  0  0  0  0  0  0  0  0  0
    0.0000    0.0170    0.0020 C   0  0  0  0  0  2  0  0  0  0  0  0
   -0.0520    1.5340    0.0110 C   0  0  0  0  0  1  0  0  0  0  0  0
  1 12  1  6  0  0  0
  1  8  1  0  0  0  0
  2  1  1  0  0  0  0
  3  2  1  0  0  0  0
  4  2  1  0  0  0  0
  4  5  1  0  0  0  0
  5  7  1  0  0  0  0
  6  5  2  0  0  0  0
  7 11  1  0  0  0  0
  7  8  1  0  0  0  0
  8  9  2  0  0  0  0
 10  4  1  0  0  0  0
 12 13  1  0  0  0  0
 14 15  1  0  0  0  0
 14 12  1  0  0  0  0
 16 18  1  0  0  0  0
 16 15  1  0  0  0  0
 17 16  2  0  0  0  0
 19 18  1  0  0  0  0
 19 20  1  0  0  0  0
M  END
>  <REMARK>
  6 active torsions:
  status: ('A' for Active; 'I' for Inactive)
    1  A    between atoms: C_2  and  O_3 
    2  A    between atoms: O_3  and  C_4 
    3  A    between atoms: C_4  and  C_6 
    4  A    between atoms: C_6  and  C_7 
    5  A    between atoms: C_7  and  N_8 
    6  A    between atoms: N_8  and  C_9 

>  <TORSDO>
F 6

$$$$
C:\Users\siddh\.mgltools\PyRx\Ligands\ZINC000008609359_uff_E=208.91.pdbqt
 OpenBabel04182118313D

 21 22  0  0  0  0  0  0  0  0999 V2000
   -0.3910    1.5050   -0.1440 C   0  0  0  0  0  1  0  0  0  0  0  0
   -0.1910    0.0470   -0.0540 N   0  0  0  0  0  0  0  0  0  0  0  0
    0.0510   -0.6740   -1.2020 C   0  0  0  0  0  0  0  0  0  0  0  0
    0.0720   -0.1110   -2.2860 O   0  0  0  0  0  0  0  0  0  0  0  0
    0.2760   -2.0560   -1.1180 C   0  0  0  0  0  0  0  0  0  0  0  0
    0.2640   -2.6440    0.1040 N   0  0  0  0  0  0  0  0  0  0  0  0
    0.4610   -3.6430    0.1680 H   0  0  0  0  0  0  0  0  0  0  0  0
    0.0060   -1.9690    1.2260 N   0  0  0  0  0  0  0  0  0  0  0  0
   -0.2290   -0.6030    1.1650 C   0  0  0  0  0  0  0  0  0  0  0  0
   -0.4200    0.0350    2.1870 O   0  0  0  0  0  0  0  0  0  0  0  0
    0.0150   -2.7040    2.4790 C   0  0  0  0  0  0  0  0  0  0  0  0
    0.8990   -3.7880    2.6430 C   0  0  0  0  0  3  0  0  0  0  0  0
    0.9400   -4.4970    3.8480 C   0  0  0  0  0  3  0  0  0  0  0  0
    0.0820   -4.1520    4.8930 C   0  0  0  0  0  3  0  0  0  0  0  0
   -0.8190   -3.0970    4.7380 C   0  0  0  0  0  3  0  0  0  0  0  0
   -0.8520   -2.3710    3.5440 C   0  0  0  0  0  3  0  0  0  0  0  0
    0.5130   -2.9000   -2.3140 C   0  0  0  0  0  0  0  0  0  0  0  0
    0.7010   -4.2260   -2.1680 O   0  0  0  0  0  0  0  0  0  0  0  0
    0.8510   -4.7630   -2.9200 H   0  0  0  0  0  0  0  0  0  0  0  0
    0.5190   -2.3680   -3.5520 O   0  0  0  0  0  0  0  0  0  0  0  0
    0.3900   -1.4480   -3.6680 H   0  0  0  0  0  0  0  0  0  0  0  0
  1  2  1  0  0  0  0
  2  9  1  0  0  0  0
  3  5  1  0  0  0  0
  3  2  1  0  0  0  0
  4  3  2  0  0  0  0
  5  6  1  0  0  0  0
  6  7  1  0  0  0  0
  6  8  1  0  0  0  0
  8 11  1  0  0  0  0
  9  8  1  0  0  0  0
  9 10  2  0  0  0  0
 11 12  2  0  0  0  0
 11 16  1  0  0  0  0
 12 13  1  0  0  0  0
 13 14  2  0  0  0  0
 15 14  1  0  0  0  0
 16 15  2  0  0  0  0
 17 18  1  0  0  0  0
 17  5  2  0  0  0  0
 19 18  1  0  0  0  0
 20 17  1  0  0  0  0
 21 20  1  0  0  0  0
M  END
>  <REMARK>
  4 active torsions:
  status: ('A' for Active; 'I' for Inactive)
    1  A    between atoms: C_5  and  C_6 
    2  A    between atoms: C_6  and  O_7 
    3  A    between atoms: C_6  and  O_8 
    4  A    between atoms: N_11  and  C_12 

>  <TORSDO>
F 4

$$$$
C:\Users\siddh\.mgltools\PyRx\Ligands\ZINC000008602318_uff_E=384.86.pdbqt
 OpenBabel04182118313D

 19 20  0  0  1  0  0  0  0  0999 V2000
    1.3640   -2.5470   -2.3930 C   0  0  0  0  0  0  0  0  0  0  0  0
    2.7480   -2.8510   -2.3610 C   0  0  0  0  0  3  0  0  0  0  0  0
    3.3850   -3.2180   -3.5550 C   0  0  0  0  0  0  0  0  0  0  0  0
    4.5760   -3.4720   -3.5800 O   0  0  0  0  0  0  0  0  0  0  0  0
    2.6300   -3.2720   -4.6890 N   0  0  0  0  0  0  0  0  0  0  0  0
    2.9980   -3.5930   -5.9150 N   0  0  0  0  0  0  0  0  0  0  0  0
    3.9300   -3.8630   -6.2300 H   0  0  0  0  0  0  0  0  0  0  0  0
    1.8750   -3.4880   -6.6690 C   0  0  1  0  0  3  0  0  0  0  0  0
    1.8210   -3.7770   -8.1330 C   0  0  0  0  0  1  0  0  0  0  0  0
    0.8010   -3.1040   -5.9290 N   0  0  0  0  0  0  0  0  0  0  0  0
    1.3310   -2.9820   -4.7000 C   0  0  2  0  0  3  0  0  0  0  0  0
    0.6730   -2.6070   -3.5750 N   0  0  0  0  0  0  0  0  0  0  0  0
   -0.3190   -2.3740   -3.6080 H   0  0  0  0  0  0  0  0  0  0  0  0
   -0.1270   -2.9530   -6.2190 H   0  0  0  0  0  0  0  0  0  0  0  0
    0.6650   -2.0750   -1.1480 C   0  0  0  0  0  2  0  0  0  0  0  0
    0.6020   -0.5690   -1.1130 C   0  0  0  0  0  0  0  0  0  0  0  0
    1.1000    0.0900   -2.0190 O   0  0  0  0  0  0  0  0  0  0  0  0
    0.0170    0.0560   -0.0600 O   0  0  0  0  0  0  0  0  0  0  0  0
   -0.0370    1.4320    0.0360 C   0  0  0  0  0  1  0  0  0  0  0  0
  1  2  2  0  0  0  0
  1 15  1  0  0  0  0
  3  2  1  0  0  0  0
  4  3  2  0  0  0  0
  5  3  1  0  0  0  0
  6  5  1  0  0  0  0
  7  6  1  0  0  0  0
  8  9  1  1  0  0  0
  8 10  1  0  0  0  0
  8  6  1  0  0  0  0
 11 10  1  6  0  0  0
 11  5  1  0  0  0  0
 11 12  1  0  0  0  0
 12  1  1  0  0  0  0
 13 12  1  0  0  0  0
 14 10  1  0  0  0  0
 15 16  1  0  0  0  0
 16 18  1  0  0  0  0
 17 16  2  0  0  0  0
 18 19  1  0  0  0  0
M  END
>  <REMARK>
  3 active torsions:
  status: ('A' for Active; 'I' for Inactive)
    1  A    between atoms: O_2  and  C_3 
    2  A    between atoms: C_3  and  C_5 
    3  A    between atoms: C_5  and  C_6 

>  <TORSDO>
F 3

$$$$
C:\Users\siddh\.mgltools\PyRx\Ligands\ZINC000008575829_uff_E=813.95.pdbqt
 OpenBabel04182118313D

 20 21  0  0  1  0  0  0  0  0999 V2000
    0.4230    0.6180   -0.3720 C   0  0  0  0  0  1  0  0  0  0  0  0
    0.1540   -0.8460   -0.1700 C   0  0  0  0  0  0  0  0  0  0  0  0
   -1.1810   -1.3420    0.0000 C   0  0  0  0  0  0  0  0  0  0  0  0
   -1.3380   -2.7470    0.1870 C   0  0  0  0  0  0  0  0  0  0  0  0
   -2.4280   -3.2710    0.3140 O   0  0  0  0  0  0  0  0  0  0  0  0
   -0.2190   -3.5160    0.2110 N   0  0  0  0  0  0  0  0  0  0  0  0
   -0.1300   -4.8210    0.3780 N   0  0  0  0  0  0  0  0  0  0  0  0
   -0.8970   -5.4790    0.5170 H   0  0  0  0  0  0  0  0  0  0  0  0
    1.1920   -5.1070    0.3250 C   0  0  0  0  0  2  0  0  0  0  0  0
    1.9370   -3.9860    0.1250 N   0  0  0  0  0  0  0  0  0  0  0  0
    1.0020   -3.0250    0.0610 C   0  0  1  0  0  3  0  0  0  0  0  0
    1.2210   -1.7040   -0.1330 N   0  0  0  0  0  0  0  0  0  0  0  0
    2.1700   -1.3520   -0.2520 H   0  0  0  0  0  0  0  0  0  0  0  0
    2.9150   -3.9020    0.0460 H   0  0  0  0  0  0  0  0  0  0  0  0
   -2.2930   -0.4340   -0.0110 N   0  0  0  0  0  0  0  0  0  0  0  0
   -2.1340    0.5650   -0.2010 H   0  0  0  0  0  0  0  0  0  0  0  0
   -3.8780   -0.8570    0.6140 S   0  0  0  0  0  0  0  0  0  0  0  0
   -3.8470   -1.4700    2.3250 C   0  0  0  0  0  1  0  0  0  0  0  0
   -4.6990    0.4310    0.4510 O   0  0  0  0  0  0  0  0  0  0  0  0
   -4.5030   -1.7840   -0.4410 O   0  0  0  0  0  0  0  0  0  0  0  0
  1  2  1  0  0  0  0
  2 12  1  0  0  0  0
  2  3  2  0  0  0  0
  3  4  1  0  0  0  0
  4  6  1  0  0  0  0
  4  5  2  0  0  0  0
  6  7  1  0  0  0  0
  7  8  1  0  0  0  0
  9  7  1  0  0  0  0
 10  9  1  0  0  0  0
 11 12  1  6  0  0  0
 11 10  1  0  0  0  0
 11  6  1  0  0  0  0
 13 12  1  0  0  0  0
 14 10  1  0  0  0  0
 15  3  1  0  0  0  0
 15 17  1  0  0  0  0
 16 15  1  0  0  0  0
 17 18  1  0  0  0  0
 19 17  2  0  0  0  0
 20 17  2  0  0  0  0
M  END
>  <REMARK>
  2 active torsions:
  status: ('A' for Active; 'I' for Inactive)
    1  A    between atoms: C_3  and  N_4 
    2  A    between atoms: N_4  and  S_5 

>  <TORSDO>
F 2

$$$$
C:\Users\siddh\.mgltools\PyRx\Ligands\ZINC000008346059_uff_E=663.02.pdbqt
 OpenBabel04182118313D

 15 15  0  0  1  0  0  0  0  0999 V2000
    0.9210   -2.3700   -1.6650 N   0  0  0  0  0  0  0  0  0  0  0  0
    1.8440   -3.1270   -0.8340 C   0  0  0  0  0  2  0  0  0  0  0  0
    1.6780   -4.5340   -1.3880 C   0  0  0  0  0  2  0  0  0  0  0  0
    0.1650   -4.6240   -1.4570 C   0  0  0  0  0  2  0  0  0  0  0  0
   -0.2270   -3.2330   -1.9880 C   0  0  1  0  0  3  0  0  0  0  0  0
    0.7370   -0.6240   -1.3830 S   0  0  0  0  0  0  0  0  0  0  0  0
    0.0860   -0.1020   -2.6730 O   0  0  0  0  0  0  0  0  0  0  0  0
    2.1600   -0.0720   -1.5570 O   0  0  0  0  0  0  0  0  0  0  0  0
   -0.0620    0.0520    0.1070 C   0  0  0  0  0  2  0  0  0  0  0  0
   -0.0080    1.5750    0.0820 C   0  0  0  0  0  1  0  0  0  0  0  0
   -1.5400   -2.7840   -1.3950 C   0  0  0  0  0  3  0  0  0  0  0  0
   -1.6890   -2.7120   -0.0560 O   0  0  0  0  0  0  0  0  0  0  0  0
   -2.5060   -2.4330    0.3100 H   0  0  0  0  0  0  0  0  0  0  0  0
   -2.5740   -2.4780   -2.1970 O   0  0  0  0  0  0  0  0  0  0  0  0
   -2.4760   -2.5270   -3.1270 H   0  0  0  0  0  0  0  0  0  0  0  0
  1  6  1  0  0  0  0
  1  2  1  0  0  0  0
  3  2  1  0  0  0  0
  4  3  1  0  0  0  0
  5  1  1  0  0  0  0
  5  4  1  0  0  0  0
  5 11  1  1  0  0  0
  6  9  1  0  0  0  0
  7  6  2  0  0  0  0
  8  6  2  0  0  0  0
 10  9  1  0  0  0  0
 11 12  1  0  0  0  0
 12 13  1  0  0  0  0
 14 11  1  0  0  0  0
 15 14  1  0  0  0  0
M  END
>  <REMARK>
  5 active torsions:
  status: ('A' for Active; 'I' for Inactive)
    1  A    between atoms: C_2  and  S_3 
    2  A    between atoms: S_3  and  N_6 
    3  A    between atoms: C_10  and  C_11 
    4  A    between atoms: C_11  and  O_12 
    5  A    between atoms: C_11  and  O_13 

>  <TORSDO>
F 5

$$$$
C:\Users\siddh\.mgltools\PyRx\Ligands\ZINC000007989005_uff_E=167.57.pdbqt
 OpenBabel04182118313D

 19 20  0  0  0  0  0  0  0  0999 V2000
    0.0450   -0.1040    0.0410 O   0  0  0  0  0  0  0  0  0  0  0  0
    0.0100    1.2440    0.0180 C   0  0  0  0  0  3  0  0  0  0  0  0
    0.1120   -1.0380    0.0850 H   0  0  0  0  0  0  0  0  0  0  0  0
    1.1620    1.9380   -0.0050 O   0  0  0  0  0  0  0  0  0  0  0  0
    1.1450    2.8750   -0.0210 H   0  0  0  0  0  0  0  0  0  0  0  0
   -1.3030    1.9740   -0.0120 C   0  0  0  0  0  2  0  0  0  0  0  0
   -2.4270    1.0130    0.0160 N   0  0  0  0  0  0  0  0  0  0  0  0
   -2.9470    0.5320    1.2060 C   0  0  0  0  0  0  0  0  0  0  0  0
   -4.0140   -0.4020    1.1800 C   0  0  0  0  0  0  0  0  0  0  0  0
   -2.4440    0.9440    2.4690 C   0  0  0  0  0  3  0  0  0  0  0  0
   -4.5110   -0.8310   -0.0590 C   0  0  0  0  0  0  0  0  0  0  0  0
   -4.5560   -0.8880    2.3890 C   0  0  0  0  0  3  0  0  0  0  0  0
   -3.9670   -0.3460   -1.2140 N   0  0  0  0  0  0  0  0  0  0  0  0
   -5.4230   -1.6400   -0.1180 O   0  0  0  0  0  0  0  0  0  0  0  0
   -2.9440    0.5620   -1.1900 C   0  0  0  0  0  0  0  0  0  0  0  0
   -4.3360   -0.6760   -2.1350 H   0  0  0  0  0  0  0  0  0  0  0  0
   -2.4810    0.9600   -2.2480 O   0  0  0  0  0  0  0  0  0  0  0  0
   -4.0490   -0.4540    3.6130 C   0  0  0  0  0  3  0  0  0  0  0  0
   -2.9980    0.4550    3.6510 C   0  0  0  0  0  3  0  0  0  0  0  0
  1  3  1  0  0  0  0
  2  1  1  0  0  0  0
  4  2  1  0  0  0  0
  5  4  1  0  0  0  0
  6  7  1  0  0  0  0
  6  2  1  0  0  0  0
  7  8  1  0  0  0  0
  8 10  1  0  0  0  0
  9  8  2  0  0  0  0
  9 12  1  0  0  0  0
 10 19  2  0  0  0  0
 11  9  1  0  0  0  0
 12 18  2  0  0  0  0
 13 15  1  0  0  0  0
 13 11  1  0  0  0  0
 14 11  2  0  0  0  0
 15  7  1  0  0  0  0
 16 13  1  0  0  0  0
 17 15  2  0  0  0  0
 18 19  1  0  0  0  0
M  END
>  <REMARK>
  3 active torsions:
  status: ('A' for Active; 'I' for Inactive)
    1  A    between atoms: C_2  and  O_3 
    2  A    between atoms: C_2  and  C_4 
    3  A    between atoms: C_4  and  N_5 

>  <TORSDO>
F 3

$$$$
C:\Users\siddh\.mgltools\PyRx\Ligands\ZINC000006921736_uff_E=571.71.pdbqt
 OpenBabel04182118313D

 18 19  0  0  1  0  0  0  0  0999 V2000
    0.1580   -0.4810   -2.4830 C   0  0  0  0  0  3  0  0  0  0  0  0
    0.7370   -1.1880   -3.4750 C   0  0  0  0  0  0  0  0  0  0  0  0
    0.9360   -0.6870   -4.7750 N   0  0  0  0  0  0  0  0  0  0  0  0
    1.5720   -1.6560   -5.4700 C   0  0  0  0  0  0  0  0  0  0  0  0
    1.8900   -1.5480   -6.6410 O   0  0  0  0  0  0  0  0  0  0  0  0
    1.8270   -2.7610   -4.7290 N   0  0  0  0  0  0  0  0  0  0  0  0
    1.3340   -2.5290   -3.4960 C   0  0  0  0  0  0  0  0  0  0  0  0
    1.4860   -3.2960   -2.5610 O   0  0  0  0  0  0  0  0  0  0  0  0
    0.6450    0.2320   -5.1410 H   0  0  0  0  0  0  0  0  0  0  0  0
    2.2840   -3.5780   -5.0330 H   0  0  0  0  0  0  0  0  0  0  0  0
   -0.1220   -1.0010   -1.1230 C   0  0  0  0  0  0  0  0  0  0  0  0
   -0.1750   -0.2660    0.0460 C   0  0  2  0  0  3  0  0  0  0  0  0
    0.0980    1.2040    0.1830 C   0  0  0  0  0  1  0  0  0  0  0  0
   -0.4870   -1.1040    1.0590 N   0  0  0  0  0  0  0  0  0  0  0  0
   -0.6630   -2.3260    0.5820 N   0  0  0  0  0  0  0  0  0  0  0  0
   -0.5910   -0.7790    2.4760 C   0  0  0  0  0  1  0  0  0  0  0  0
   -0.4460   -2.2950   -0.7470 C   0  0  0  0  0  3  0  0  0  0  0  0
   -0.9170   -3.1490    1.1270 H   0  0  0  0  0  0  0  0  0  0  0  0
  1 11  1  0  0  0  0
  2  1  2  0  0  0  0
  3  2  1  0  0  0  0
  4  3  1  0  0  0  0
  4  6  1  0  0  0  0
  5  4  2  0  0  0  0
  6  7  1  0  0  0  0
  7  2  1  0  0  0  0
  7  8  2  0  0  0  0
  9  3  1  0  0  0  0
 10  6  1  0  0  0  0
 11 17  2  0  0  0  0
 11 12  1  0  0  0  0
 12 13  1  1  0  0  0
 12 14  1  0  0  0  0
 14 16  1  0  0  0  0
 15 14  1  0  0  0  0
 15 18  1  0  0  0  0
 17 15  1  0  0  0  0
M  END
>  <REMARK>
  1 active torsions:
  status: ('A' for Active; 'I' for Inactive)
    1  A    between atoms: C_3  and  C_4 

>  <TORSDO>
F 1

$$$$
C:\Users\siddh\.mgltools\PyRx\Ligands\ZINC000006921409_uff_E=561.94.pdbqt
 OpenBabel04182118313D

 18 19  0  0  1  0  0  0  0  0999 V2000
    0.2000   -0.5220    2.5390 C   0  0  0  0  0  3  0  0  0  0  0  0
    0.6400   -1.3140    3.5410 C   0  0  0  0  0  0  0  0  0  0  0  0
    0.6420   -0.9230    4.8930 N   0  0  0  0  0  0  0  0  0  0  0  0
    1.1470   -1.9610    5.5960 C   0  0  0  0  0  0  0  0  0  0  0  0
    1.2690   -1.9590    6.8080 O   0  0  0  0  0  0  0  0  0  0  0  0
    1.5080   -3.0060    4.8140 N   0  0  0  0  0  0  0  0  0  0  0  0
    1.2210   -2.6640    3.5440 C   0  0  0  0  0  0  0  0  0  0  0  0
    1.5270   -3.3500    2.5850 O   0  0  0  0  0  0  0  0  0  0  0  0
    0.2990   -0.0330    5.2860 H   0  0  0  0  0  0  0  0  0  0  0  0
    1.9050   -3.8550    5.1170 H   0  0  0  0  0  0  0  0  0  0  0  0
    0.0670   -0.9280    1.1190 C   0  0  0  0  0  0  0  0  0  0  0  0
    0.0570   -0.0910    0.0110 C   0  0  1  0  0  3  0  0  0  0  0  0
    0.2760    1.3870   -0.0040 C   0  0  0  0  0  1  0  0  0  0  0  0
   -0.1490   -0.8290   -1.0990 N   0  0  0  0  0  0  0  0  0  0  0  0
   -0.2730   -2.0930   -0.7260 N   0  0  0  0  0  0  0  0  0  0  0  0
   -0.2000   -0.4760   -2.0550 H   0  0  0  0  0  0  0  0  0  0  0  0
   -0.5180   -3.2040   -1.6340 C   0  0  0  0  0  1  0  0  0  0  0  0
   -0.1540   -2.1920    0.6080 C   0  0  0  0  0  3  0  0  0  0  0  0
  1  2  2  0  0  0  0
  2  7  1  0  0  0  0
  2  3  1  0  0  0  0
  3  9  1  0  0  0  0
  3  4  1  0  0  0  0
  4  5  2  0  0  0  0
  6 10  1  0  0  0  0
  6  4  1  0  0  0  0
  7  6  1  0  0  0  0
  8  7  2  0  0  0  0
 11  1  1  0  0  0  0
 12 13  1  6  0  0  0
 12 11  1  0  0  0  0
 14 15  1  0  0  0  0
 14 12  1  0  0  0  0
 15 18  1  0  0  0  0
 16 14  1  0  0  0  0
 17 15  1  0  0  0  0
 18 11  2  0  0  0  0
M  END
>  <REMARK>
  1 active torsions:
  status: ('A' for Active; 'I' for Inactive)
    1  A    between atoms: C_8  and  C_9 

>  <TORSDO>
F 1

$$$$
C:\Users\siddh\.mgltools\PyRx\Ligands\ZINC000006769861_uff_E=378.03.pdbqt
 OpenBabel04182118313D

 21 22  0  0  1  0  0  0  0  0999 V2000
   -0.2330    1.5060    0.0070 C   0  0  0  0  0  1  0  0  0  0  0  0
   -0.1040    0.0160   -0.0090 C   0  0  1  0  0  3  0  0  0  0  0  0
   -0.0950   -0.6830   -1.2170 C   0  0  0  0  0  3  0  0  0  0  0  0
    0.0280   -2.0760   -1.2140 C   0  0  0  0  0  0  0  0  0  0  0  0
    0.1470   -2.7690    0.0250 C   0  0  0  0  0  0  0  0  0  0  0  0
    0.2760   -4.1720    0.1200 C   0  0  0  0  0  0  0  0  0  0  0  0
    0.2940   -4.8620   -0.8870 O   0  0  0  0  0  0  0  0  0  0  0  0
    0.3860   -4.7750    1.3570 N   0  0  0  0  0  0  0  0  0  0  0  0
    0.5280   -6.2380    1.4530 C   0  0  0  0  0  1  0  0  0  0  0  0
    0.3840   -4.0110    2.5060 C   0  0  0  0  0  0  0  0  0  0  0  0
    0.4970   -4.5580    3.5940 O   0  0  0  0  0  0  0  0  0  0  0  0
    0.2570   -2.6380    2.4370 N   0  0  0  0  0  0  0  0  0  0  0  0
    0.2470   -1.8260    3.6680 C   0  0  0  0  0  1  0  0  0  0  0  0
    0.1380   -2.0160    1.2210 C   0  0  0  0  0  0  0  0  0  0  0  0
    0.0130   -0.6590    1.1630 N   0  0  0  0  0  0  0  0  0  0  0  0
    0.0070   -0.1300    2.0350 H   0  0  0  0  0  0  0  0  0  0  0  0
    0.0250   -2.7720   -2.5130 C   0  0  0  0  0  3  0  0  0  0  0  0
    1.1870   -3.0220   -3.1450 O   0  0  0  0  0  0  0  0  0  0  0  0
    1.1850   -3.4650   -3.9710 H   0  0  0  0  0  0  0  0  0  0  0  0
   -1.1320   -3.2290   -3.0290 O   0  0  0  0  0  0  0  0  0  0  0  0
   -1.9410   -3.0550   -2.5900 H   0  0  0  0  0  0  0  0  0  0  0  0
  2  1  1  6  0  0  0
  2 15  1  0  0  0  0
  3  4  2  0  0  0  0
  3  2  1  0  0  0  0
  4  5  1  0  0  0  0
  5  6  1  0  0  0  0
  5 14  2  0  0  0  0
  6  8  1  0  0  0  0
  7  6  2  0  0  0  0
  8  9  1  0  0  0  0
  8 10  1  0  0  0  0
 10 11  2  0  0  0  0
 12 10  1  0  0  0  0
 12 13  1  0  0  0  0
 14 12  1  0  0  0  0
 15 14  1  0  0  0  0
 15 16  1  0  0  0  0
 17  4  1  0  0  0  0
 18 17  1  0  0  0  0
 19 18  1  0  0  0  0
 20 21  1  0  0  0  0
 20 17  1  0  0  0  0
M  END
>  <REMARK>
  3 active torsions:
  status: ('A' for Active; 'I' for Inactive)
    1  A    between atoms: C_4  and  C_5 
    2  A    between atoms: C_5  and  O_6 
    3  A    between atoms: C_5  and  O_7 

>  <TORSDO>
F 3

$$$$
C:\Users\siddh\.mgltools\PyRx\Ligands\ZINC000006760912_uff_E=421.83.pdbqt
 OpenBabel04182118313D

 23 24  0  0  1  0  0  0  0  0999 V2000
   -0.2480    4.2510    0.3280 C   0  0  0  0  0  0  0  0  0  0  0  0
   -0.6210    4.9680   -0.5910 O   0  0  0  0  0  0  0  0  0  0  0  0
    1.0220    4.3710    0.8120 N   0  0  0  0  0  0  0  0  0  0  0  0
    1.9630    5.2850    0.2560 C   0  0  1  0  0  3  0  0  0  0  0  0
    3.2560    5.3510    0.6160 N   0  0  0  0  0  0  0  0  0  0  0  0
    3.7310    4.8010    1.3310 H   0  0  0  0  0  0  0  0  0  0  0  0
    3.7760    6.2870   -0.1600 N   0  0  0  0  0  0  0  0  0  0  0  0
    2.8500    6.7810   -0.9660 N   0  0  0  0  0  2  0  0  0  0  0  0
    1.7020    6.1680   -0.7290 N   0  0  0  0  0  0  0  0  0  0  0  0
    0.8090    6.3300   -1.1930 H   0  0  0  0  0  0  0  0  0  0  0  0
    1.3360    3.7420    1.5660 H   0  0  0  0  0  0  0  0  0  0  0  0
    4.7740    6.5900   -0.1470 H   0  0  0  0  0  0  0  0  0  0  0  0
   -1.2020    3.1990    0.8920 C   0  0  2  0  0  3  0  0  0  0  0  0
   -1.3980    2.0150   -0.0770 C   0  0  1  0  0  3  0  0  0  0  0  0
   -1.9240    2.5110   -1.4400 C   0  0  0  0  0  2  0  0  0  0  0  0
   -3.0620    3.5010   -1.2850 C   0  0  0  0  0  3  0  0  0  0  0  0
   -3.3850    4.0660   -0.1010 C   0  0  0  0  0  3  0  0  0  0  0  0
   -2.5970    3.8090    1.1720 C   0  0  0  0  0  2  0  0  0  0  0  0
   -0.1500    1.1840   -0.2420 C   0  0  0  0  0  3  0  0  0  0  0  0
   -0.1560   -0.1130    0.1220 O   0  0  0  0  0  0  0  0  0  0  0  0
   -0.1670   -0.8220    0.7340 H   0  0  0  0  0  0  0  0  0  0  0  0
    0.9750    1.7250   -0.7490 O   0  0  0  0  0  0  0  0  0  0  0  0
    0.9870    2.6260   -1.0050 H   0  0  0  0  0  0  0  0  0  0  0  0
  1  3  1  0  0  0  0
  2  1  2  0  0  0  0
  3 11  1  0  0  0  0
  4  5  1  0  0  0  0
  4  3  1  6  0  0  0
  5  6  1  0  0  0  0
  7 12  1  0  0  0  0
  7  5  1  0  0  0  0
  8  9  1  0  0  0  0
  8  7  1  0  0  0  0
  9  4  1  0  0  0  0
 10  9  1  0  0  0  0
 13  1  1  6  0  0  0
 13 18  1  0  0  0  0
 14 19  1  6  0  0  0
 14 13  1  0  0  0  0
 15 16  1  0  0  0  0
 15 14  1  0  0  0  0
 16 17  2  0  0  0  0
 17 18  1  0  0  0  0
 19 20  1  0  0  0  0
 20 21  1  0  0  0  0
 22 19  1  0  0  0  0
 23 22  1  0  0  0  0
M  END
>  <REMARK>
  4 active torsions:
  status: ('A' for Active; 'I' for Inactive)
    1  A    between atoms: O_1  and  C_2 
    2  A    between atoms: C_2  and  O_3 
    3  A    between atoms: C_2  and  C_4 
    4  A    between atoms: C_9  and  C_10 
       I    between atoms: C_10  and  N_12 
       I    between atoms: N_12  and  C_13 

>  <TORSDO>
F 4

$$$$
C:\Users\siddh\.mgltools\PyRx\Ligands\ZINC000006760910_uff_E=399.36.pdbqt
 OpenBabel04182118313D

 23 24  0  0  1  0  0  0  0  0999 V2000
   -0.0560    4.0730    0.2790 C   0  0  0  0  0  0  0  0  0  0  0  0
    0.3980    3.8160   -0.8280 O   0  0  0  0  0  0  0  0  0  0  0  0
    0.4340    5.1190    1.0040 N   0  0  0  0  0  0  0  0  0  0  0  0
    1.5100    5.9350    0.5490 C   0  0  1  0  0  3  0  0  0  0  0  0
    1.9390    7.0370    1.1860 N   0  0  0  0  0  0  0  0  0  0  0  0
    1.5730    7.4410    2.0480 H   0  0  0  0  0  0  0  0  0  0  0  0
    2.9410    7.4840    0.4460 N   0  0  0  0  0  0  0  0  0  0  0  0
    3.1290    6.6930   -0.5970 N   0  0  0  0  0  2  0  0  0  0  0  0
    2.2420    5.7110   -0.5590 N   0  0  0  0  0  0  0  0  0  0  0  0
    2.1360    4.9470   -1.2270 H   0  0  0  0  0  0  0  0  0  0  0  0
   -0.0050    5.3550    1.9060 H   0  0  0  0  0  0  0  0  0  0  0  0
    3.5020    8.3390    0.6540 H   0  0  0  0  0  0  0  0  0  0  0  0
   -1.1980    3.2340    0.8170 C   0  0  2  0  0  3  0  0  0  0  0  0
   -0.9140    1.7240    0.7080 C   0  0  2  0  0  3  0  0  0  0  0  0
   -2.0750    0.9310    1.3440 C   0  0  0  0  0  2  0  0  0  0  0  0
   -3.4350    1.4310    0.9180 C   0  0  0  0  0  3  0  0  0  0  0  0
   -3.6130    2.6120    0.2990 C   0  0  0  0  0  3  0  0  0  0  0  0
   -2.4770    3.5650    0.0210 C   0  0  0  0  0  2  0  0  0  0  0  0
    0.3950    1.3250    1.3430 C   0  0  0  0  0  3  0  0  0  0  0  0
    0.6050    1.5270    2.6580 O   0  0  0  0  0  0  0  0  0  0  0  0
    0.6590    2.3970    3.0000 H   0  0  0  0  0  0  0  0  0  0  0  0
    1.3640    0.7680    0.5910 O   0  0  0  0  0  0  0  0  0  0  0  0
    1.2230    0.6250   -0.3240 H   0  0  0  0  0  0  0  0  0  0  0  0
  1  3  1  0  0  0  0
  2  1  2  0  0  0  0
  3 11  1  0  0  0  0
  4  3  1  1  0  0  0
  4  5  1  0  0  0  0
  5  6  1  0  0  0  0
  7 12  1  0  0  0  0
  7  5  1  0  0  0  0
  8  9  1  0  0  0  0
  8  7  1  0  0  0  0
  9  4  1  0  0  0  0
 10  9  1  0  0  0  0
 13  1  1  6  0  0  0
 14 13  1  0  0  0  0
 14 19  1  1  0  0  0
 14 15  1  0  0  0  0
 16 15  1  0  0  0  0
 17 16  2  0  0  0  0
 18 17  1  0  0  0  0
 18 13  1  0  0  0  0
 19 20  1  0  0  0  0
 20 21  1  0  0  0  0
 22 19  1  0  0  0  0
 23 22  1  0  0  0  0
M  END
>  <REMARK>
  4 active torsions:
  status: ('A' for Active; 'I' for Inactive)
    1  A    between atoms: O_1  and  C_2 
    2  A    between atoms: C_2  and  O_3 
    3  A    between atoms: C_2  and  C_4 
    4  A    between atoms: C_9  and  C_10 
       I    between atoms: C_10  and  N_12 
       I    between atoms: N_12  and  C_13 

>  <TORSDO>
F 4

$$$$
C:\Users\siddh\.mgltools\PyRx\Ligands\ZINC000006751092_uff_E=302.62.pdbqt
 OpenBabel04182118313D

 19 19  0  0  0  0  0  0  0  0999 V2000
   -1.3320   -2.0380    0.0220 C   0  0  0  0  0  0  0  0  0  0  0  0
   -2.4440   -2.8930   -0.0220 C   0  0  0  0  0  0  0  0  0  0  0  0
   -1.9720   -4.1650   -0.0040 N   0  0  0  0  0  0  0  0  0  0  0  0
   -0.6300   -4.0700    0.0660 C   0  0  0  0  0  2  0  0  0  0  0  0
   -0.2130   -2.7890    0.0770 N   0  0  0  0  0  0  0  0  0  0  0  0
    0.7510   -2.4560    0.1170 H   0  0  0  0  0  0  0  0  0  0  0  0
   -3.8980   -2.5390   -0.0660 C   0  0  0  0  0  3  0  0  0  0  0  0
   -4.8330   -3.5060   -0.0850 O   0  0  0  0  0  0  0  0  0  0  0  0
   -5.7420   -3.2790   -0.1120 H   0  0  0  0  0  0  0  0  0  0  0  0
   -4.3100   -1.2620   -0.0620 O   0  0  0  0  0  0  0  0  0  0  0  0
   -3.6820   -0.5670   -0.0490 H   0  0  0  0  0  0  0  0  0  0  0  0
   -1.2560   -0.5560    0.0160 C   0  0  0  0  0  0  0  0  0  0  0  0
   -2.2650    0.1270   -0.0100 O   0  0  0  0  0  0  0  0  0  0  0  0
   -0.0360    0.0430    0.0280 O   0  0  0  0  0  0  0  0  0  0  0  0
    0.1240    1.4140    0.0180 C   0  0  0  0  0  1  0  0  0  0  0  0
   -2.7080   -5.4360   -0.0540 C   0  0  0  0  0  2  0  0  0  0  0  0
   -3.3460   -5.6570   -1.4050 C   0  0  0  0  0  0  0  0  0  0  0  0
   -4.1350   -6.9010   -1.6730 C   0  0  0  0  0  1  0  0  0  0  0  0
   -3.2180   -4.8290   -2.2950 O   0  0  0  0  0  0  0  0  0  0  0  0
  1  5  1  0  0  0  0
  2  3  1  0  0  0  0
  2  1  2  0  0  0  0
  3  4  1  0  0  0  0
  4  5  1  0  0  0  0
  5  6  1  0  0  0  0
  7 10  1  0  0  0  0
  7  2  1  0  0  0  0
  8  7  1  0  0  0  0
  9  8  1  0  0  0  0
 10 11  1  0  0  0  0
 12  1  1  0  0  0  0
 12 14  1  0  0  0  0
 13 12  2  0  0  0  0
 15 14  1  0  0  0  0
 16  3  1  0  0  0  0
 17 16  1  0  0  0  0
 18 17  1  0  0  0  0
 19 17  2  0  0  0  0
M  END
>  <REMARK>
  7 active torsions:
  status: ('A' for Active; 'I' for Inactive)
    1  A    between atoms: O_2  and  C_3 
    2  A    between atoms: C_3  and  C_5 
    3  A    between atoms: C_6  and  C_7 
    4  A    between atoms: C_7  and  O_8 
    5  A    between atoms: C_7  and  O_9 
    6  A    between atoms: N_10  and  C_11 
    7  A    between atoms: C_11  and  C_12 

>  <TORSDO>
F 7

$$$$
C:\Users\siddh\.mgltools\PyRx\Ligands\ZINC000006564865_uff_E=695.28.pdbqt
 OpenBabel04182118313D

 18 18  0  0  0  0  0  0  0  0999 V2000
    0.0510   -0.7980   -1.4630 S   0  0  0  0  0  0  0  0  0  0  0  0
   -0.6970   -2.1380   -1.3900 O   0  0  0  0  0  0  0  0  0  0  0  0
   -0.7240   -0.1200   -2.6030 O   0  0  0  0  0  0  0  0  0  0  0  0
   -0.4440    0.0750    0.0070 N   0  0  0  0  0  0  0  0  0  0  0  0
    0.0110    1.4680    0.0140 C   0  0  0  0  0  1  0  0  0  0  0  0
   -0.1380   -0.6590    1.2480 C   0  0  0  0  0  2  0  0  0  0  0  0
   -1.4240   -0.9740    1.9550 C   0  0  0  0  0  3  0  0  0  0  0  0
   -2.6060   -0.5860    1.4340 O   0  0  0  0  0  0  0  0  0  0  0  0
   -3.4040   -0.7860    1.8820 H   0  0  0  0  0  0  0  0  0  0  0  0
   -1.4020   -1.6510    3.1180 O   0  0  0  0  0  0  0  0  0  0  0  0
   -0.5850   -1.9240    3.4860 H   0  0  0  0  0  0  0  0  0  0  0  0
    1.7710   -1.0470   -1.8980 C   0  0  0  0  0  0  0  0  0  0  0  0
    2.4940   -2.1300   -1.5500 N   0  0  0  0  0  0  0  0  0  0  0  0
    3.7030   -1.9290   -2.1170 C   0  0  0  0  0  2  0  0  0  0  0  0
    2.1950   -2.9250   -0.9850 H   0  0  0  0  0  0  0  0  0  0  0  0
    3.7550   -0.7690   -2.8010 N   0  0  0  0  0  0  0  0  0  0  0  0
    2.5410   -0.2110   -2.6680 C   0  0  0  0  0  3  0  0  0  0  0  0
    4.5680   -0.3880   -3.3320 H   0  0  0  0  0  0  0  0  0  0  0  0
  1  2  2  0  0  0  0
  1  4  1  0  0  0  0
  3  1  2  0  0  0  0
  4  5  1  0  0  0  0
  4  6  1  0  0  0  0
  6  7  1  0  0  0  0
  7 10  1  0  0  0  0
  8  9  1  0  0  0  0
  8  7  1  0  0  0  0
 10 11  1  0  0  0  0
 12 13  1  0  0  0  0
 12  1  1  0  0  0  0
 13 15  1  0  0  0  0
 14 13  1  0  0  0  0
 16 17  1  0  0  0  0
 16 14  1  0  0  0  0
 17 12  2  0  0  0  0
 18 16  1  0  0  0  0
M  END
>  <REMARK>
  6 active torsions:
  status: ('A' for Active; 'I' for Inactive)
    1  A    between atoms: N_2  and  C_3 
    2  A    between atoms: N_2  and  S_7 
    3  A    between atoms: C_3  and  C_4 
    4  A    between atoms: C_4  and  O_5 
    5  A    between atoms: C_4  and  O_6 
    6  A    between atoms: S_7  and  C_10 

>  <TORSDO>
F 6

$$$$
C:\Users\siddh\.mgltools\PyRx\Ligands\ZINC000006445426_uff_E=365.88.pdbqt
 OpenBabel04182118313D

 25 26  0  0  1  0  0  0  0  0999 V2000
    0.0090   -0.0030    0.0030 C   0  0  0  0  0  0  0  0  0  0  0  0
   -1.2090   -0.7360    0.0040 C   0  0  0  0  0  3  0  0  0  0  0  0
   -1.1950   -2.1440   -0.0050 C   0  0  0  0  0  3  0  0  0  0  0  0
    0.0450   -2.7790   -0.0100 C   0  0  0  0  0  0  0  0  0  0  0  0
    0.3180   -4.0890   -0.0240 N   0  0  0  0  0  0  0  0  0  0  0  0
    1.6760   -4.1580   -0.0230 C   0  0  2  0  0  3  0  0  0  0  0  0
    2.2520   -2.9280   -0.0020 N   0  0  0  0  0  0  0  0  0  0  0  0
    3.2460   -2.7020    0.0110 H   0  0  0  0  0  0  0  0  0  0  0  0
    1.2120   -2.0780   -0.0020 C   0  0  0  0  0  0  0  0  0  0  0  0
    1.2430   -0.6900   -0.0000 C   0  0  0  0  0  3  0  0  0  0  0  0
   -0.3670   -4.8780   -0.0330 H   0  0  0  0  0  0  0  0  0  0  0  0
    2.4710   -5.4420   -0.0470 C   0  0  1  0  0  3  0  0  0  0  0  0
    1.6140   -6.5580   -0.0970 O   0  0  0  0  0  0  0  0  0  0  0  0
    1.1380   -6.5370   -0.9700 H   0  0  0  0  0  0  0  0  0  0  0  0
    3.4860   -5.4560   -1.2200 C   0  0  1  0  0  3  0  0  0  0  0  0
    4.3530   -4.3470   -1.1490 O   0  0  0  0  0  0  0  0  0  0  0  0
    4.8450   -4.3940   -0.2870 H   0  0  0  0  0  0  0  0  0  0  0  0
    4.2810   -6.7390   -1.2480 C   0  0  0  0  0  3  0  0  0  0  0  0
    3.6550   -7.9170   -1.4310 O   0  0  0  0  0  0  0  0  0  0  0  0
    4.1490   -8.7120   -1.4470 H   0  0  0  0  0  0  0  0  0  0  0  0
    5.6200   -6.7170   -1.0980 O   0  0  0  0  0  0  0  0  0  0  0  0
    6.0640   -5.9020   -0.9700 H   0  0  0  0  0  0  0  0  0  0  0  0
   -0.0140    1.4120    0.0070 N   0  0  0  0  0  0  0  0  0  0  0  0
    0.8660    1.9490    0.0050 H   0  0  0  0  0  0  0  0  0  0  0  0
   -0.9100    1.9200    0.0140 H   0  0  0  0  0  0  0  0  0  0  0  0
  1  2  1  0  0  0  0
  1 23  1  0  0  0  0
  3  2  2  0  0  0  0
  4  3  1  0  0  0  0
  4  9  2  0  0  0  0
  5  6  1  0  0  0  0
  5  4  1  0  0  0  0
  6 12  1  6  0  0  0
  6  7  1  0  0  0  0
  7  9  1  0  0  0  0
  7  8  1  0  0  0  0
  9 10  1  0  0  0  0
 10  1  2  0  0  0  0
 11  5  1  0  0  0  0
 12 13  1  6  0  0  0
 14 13  1  0  0  0  0
 15 18  1  1  0  0  0
 15 16  1  0  0  0  0
 15 12  1  0  0  0  0
 16 17  1  0  0  0  0
 18 21  1  0  0  0  0
 19 18  1  0  0  0  0
 20 19  1  0  0  0  0
 21 22  1  0  0  0  0
 23 25  1  0  0  0  0
 24 23  1  0  0  0  0
M  END
>  <REMARK>
  8 active torsions:
  status: ('A' for Active; 'I' for Inactive)
    1  A    between atoms: N_1  and  C_2 
    2  A    between atoms: C_7  and  C_8 
    3  A    between atoms: C_8  and  O_9 
    4  A    between atoms: C_8  and  C_10 
    5  A    between atoms: C_10  and  O_11 
    6  A    between atoms: C_10  and  C_12 
    7  A    between atoms: C_12  and  O_13 
    8  A    between atoms: C_12  and  O_14 

>  <TORSDO>
F 8

$$$$
C:\Users\siddh\.mgltools\PyRx\Ligands\ZINC000006445419_uff_E=359.02.pdbqt
 OpenBabel04182118313D

 25 26  0  0  1  0  0  0  0  0999 V2000
    0.0090   -0.0050    0.0010 C   0  0  0  0  0  0  0  0  0  0  0  0
   -1.2060   -0.7410    0.0010 C   0  0  0  0  0  3  0  0  0  0  0  0
   -1.1870   -2.1510   -0.0070 C   0  0  0  0  0  3  0  0  0  0  0  0
    0.0570   -2.7820   -0.0110 C   0  0  0  0  0  0  0  0  0  0  0  0
    0.3390   -4.0920   -0.0210 N   0  0  0  0  0  0  0  0  0  0  0  0
    1.6950   -4.1510   -0.0120 C   0  0  2  0  0  3  0  0  0  0  0  0
    2.2660   -2.9190    0.0020 N   0  0  0  0  0  0  0  0  0  0  0  0
    3.2590   -2.6870    0.0140 H   0  0  0  0  0  0  0  0  0  0  0  0
    1.2200   -2.0750   -0.0030 C   0  0  0  0  0  0  0  0  0  0  0  0
    1.2450   -0.6870   -0.0020 C   0  0  0  0  0  3  0  0  0  0  0  0
   -0.3340   -4.8910   -0.0300 H   0  0  0  0  0  0  0  0  0  0  0  0
    2.4900   -5.4290   -0.0220 C   0  0  2  0  0  3  0  0  0  0  0  0
    3.1920   -5.5660    1.1900 O   0  0  0  0  0  0  0  0  0  0  0  0
    3.8490   -4.8250    1.2540 H   0  0  0  0  0  0  0  0  0  0  0  0
    3.4490   -5.4730   -1.2380 C   0  0  2  0  0  3  0  0  0  0  0  0
    2.7350   -5.3180   -2.4420 O   0  0  0  0  0  0  0  0  0  0  0  0
    2.1040   -6.0790   -2.5250 H   0  0  0  0  0  0  0  0  0  0  0  0
    4.2660   -6.7430   -1.2560 C   0  0  0  0  0  3  0  0  0  0  0  0
    4.1720   -7.6050   -2.2870 O   0  0  0  0  0  0  0  0  0  0  0  0
    4.6830   -8.3900   -2.2890 H   0  0  0  0  0  0  0  0  0  0  0  0
    5.1090   -7.0150   -0.2410 O   0  0  0  0  0  0  0  0  0  0  0  0
    5.1810   -6.4210    0.4810 H   0  0  0  0  0  0  0  0  0  0  0  0
   -0.0160    1.4110    0.0060 N   0  0  0  0  0  0  0  0  0  0  0  0
    0.8630    1.9480    0.0050 H   0  0  0  0  0  0  0  0  0  0  0  0
   -0.9120    1.9180    0.0140 H   0  0  0  0  0  0  0  0  0  0  0  0
  1  2  1  0  0  0  0
  1 23  1  0  0  0  0
  3  2  2  0  0  0  0
  4  3  1  0  0  0  0
  4  9  2  0  0  0  0
  5  6  1  0  0  0  0
  5  4  1  0  0  0  0
  6 12  1  6  0  0  0
  6  7  1  0  0  0  0
  7  8  1  0  0  0  0
  9 10  1  0  0  0  0
  9  7  1  0  0  0  0
 10  1  2  0  0  0  0
 11  5  1  0  0  0  0
 12 13  1  1  0  0  0
 13 14  1  0  0  0  0
 15 16  1  6  0  0  0
 15 12  1  0  0  0  0
 17 16  1  0  0  0  0
 18 15  1  0  0  0  0
 18 21  1  0  0  0  0
 19 18  1  0  0  0  0
 20 19  1  0  0  0  0
 21 22  1  0  0  0  0
 23 25  1  0  0  0  0
 24 23  1  0  0  0  0
M  END
>  <REMARK>
  8 active torsions:
  status: ('A' for Active; 'I' for Inactive)
    1  A    between atoms: N_1  and  C_2 
    2  A    between atoms: C_7  and  C_8 
    3  A    between atoms: C_8  and  O_9 
    4  A    between atoms: C_8  and  C_10 
    5  A    between atoms: C_10  and  O_11 
    6  A    between atoms: C_10  and  C_12 
    7  A    between atoms: C_12  and  O_13 
    8  A    between atoms: C_12  and  O_14 

>  <TORSDO>
F 8

$$$$
C:\Users\siddh\.mgltools\PyRx\Ligands\ZINC000005789479_uff_E=97.34.pdbqt
 OpenBabel04182118313D

 18 18  0  0  1  0  0  0  0  0999 V2000
   -1.0630   -2.1370   -0.0070 C   0  0  2  0  0  3  0  0  0  0  0  0
    0.0210   -2.8100    0.0060 N   0  0  0  0  0  0  0  0  0  0  0  0
    0.9420   -2.3710    0.0230 H   0  0  0  0  0  0  0  0  0  0  0  0
   -0.1450   -4.1350   -0.0040 C   0  0  0  0  0  0  0  0  0  0  0  0
    0.8130   -4.8910   -0.0090 O   0  0  0  0  0  0  0  0  0  0  0  0
   -1.5570   -4.6270   -0.0250 C   0  0  2  0  0  3  0  0  0  0  0  0
   -2.5810   -3.0930   -0.0470 S   0  0  0  0  0  0  0  0  0  0  0  0
   -1.8570   -5.4760    1.2200 C   0  0  0  0  0  2  0  0  0  0  0  0
   -3.2370   -6.0780    1.1970 C   0  0  0  0  0  3  0  0  0  0  0  0
   -4.0670   -5.8760    0.1530 O   0  0  0  0  0  0  0  0  0  0  0  0
   -4.9220   -6.2580    0.1550 H   0  0  0  0  0  0  0  0  0  0  0  0
   -3.6410   -6.8470    2.2240 O   0  0  0  0  0  0  0  0  0  0  0  0
   -3.0710   -6.9920    2.9540 H   0  0  0  0  0  0  0  0  0  0  0  0
   -1.0730   -0.7090    0.0030 N   0  0  0  0  0  0  0  0  0  0  0  0
    0.0630    0.0490    0.0040 C   0  0  0  0  0  0  0  0  0  0  0  0
   -0.0330    1.5430    0.0120 C   0  0  0  0  0  1  0  0  0  0  0  0
    1.1680   -0.4730   -0.0060 O   0  0  0  0  0  0  0  0  0  0  0  0
   -1.9880   -0.2320    0.0070 H   0  0  0  0  0  0  0  0  0  0  0  0
  1 14  1  6  0  0  0
  1  2  1  0  0  0  0
  2  3  1  0  0  0  0
  4  2  1  0  0  0  0
  5  4  2  0  0  0  0
  6  4  1  0  0  0  0
  6  8  1  1  0  0  0
  7  6  1  0  0  0  0
  7  1  1  0  0  0  0
  9  8  1  0  0  0  0
  9 12  1  0  0  0  0
 10 11  1  0  0  0  0
 10  9  1  0  0  0  0
 12 13  1  0  0  0  0
 14 15  1  0  0  0  0
 14 18  1  0  0  0  0
 15 16  1  0  0  0  0
 17 15  2  0  0  0  0
M  END
>  <REMARK>
  5 active torsions:
  status: ('A' for Active; 'I' for Inactive)
       I    between atoms: C_2  and  N_4 
    1  A    between atoms: N_4  and  C_5 
    2  A    between atoms: C_10  and  C_11 
    3  A    between atoms: C_11  and  C_12 
    4  A    between atoms: C_12  and  O_13 
    5  A    between atoms: C_12  and  O_14 

>  <TORSDO>
F 5

$$$$
C:\Users\siddh\.mgltools\PyRx\Ligands\ZINC000005789478_uff_E=97.29.pdbqt
 OpenBabel04182118313D

 18 18  0  0  1  0  0  0  0  0999 V2000
   -1.0630   -2.1380    0.0100 C   0  0  1  0  0  3  0  0  0  0  0  0
    0.0210   -2.8100   -0.0210 N   0  0  0  0  0  0  0  0  0  0  0  0
    0.9410   -2.3710   -0.0440 H   0  0  0  0  0  0  0  0  0  0  0  0
   -0.1450   -4.1350   -0.0220 C   0  0  0  0  0  0  0  0  0  0  0  0
    0.8130   -4.8910   -0.0350 O   0  0  0  0  0  0  0  0  0  0  0  0
   -1.5560   -4.6280    0.0080 C   0  0  1  0  0  3  0  0  0  0  0  0
   -2.5810   -3.0940    0.0590 S   0  0  0  0  0  0  0  0  0  0  0  0
   -1.8680   -5.4630   -1.2430 C   0  0  0  0  0  2  0  0  0  0  0  0
   -3.2480   -6.0650   -1.2150 C   0  0  0  0  0  3  0  0  0  0  0  0
   -4.0680   -5.8750   -0.1620 O   0  0  0  0  0  0  0  0  0  0  0  0
   -4.9240   -6.2570   -0.1600 H   0  0  0  0  0  0  0  0  0  0  0  0
   -3.6610   -6.8220   -2.2470 O   0  0  0  0  0  0  0  0  0  0  0  0
   -3.0980   -6.9590   -2.9830 H   0  0  0  0  0  0  0  0  0  0  0  0
   -1.0740   -0.7090    0.0140 N   0  0  0  0  0  0  0  0  0  0  0  0
    0.0620    0.0490    0.0010 C   0  0  0  0  0  0  0  0  0  0  0  0
   -0.0330    1.5420    0.0090 C   0  0  0  0  0  1  0  0  0  0  0  0
    1.1680   -0.4730   -0.0140 O   0  0  0  0  0  0  0  0  0  0  0  0
   -1.9880   -0.2330    0.0300 H   0  0  0  0  0  0  0  0  0  0  0  0
  1 14  1  1  0  0  0
  1  7  1  0  0  0  0
  2  1  1  0  0  0  0
  3  2  1  0  0  0  0
  4  2  1  0  0  0  0
  4  6  1  0  0  0  0
  5  4  2  0  0  0  0
  6  8  1  6  0  0  0
  6  7  1  0  0  0  0
  8  9  1  0  0  0  0
  9 10  1  0  0  0  0
 10 11  1  0  0  0  0
 12  9  1  0  0  0  0
 13 12  1  0  0  0  0
 14 18  1  0  0  0  0
 15 16  1  0  0  0  0
 15 14  1  0  0  0  0
 17 15  2  0  0  0  0
M  END
>  <REMARK>
  5 active torsions:
  status: ('A' for Active; 'I' for Inactive)
       I    between atoms: C_2  and  N_4 
    1  A    between atoms: N_4  and  C_5 
    2  A    between atoms: C_10  and  C_11 
    3  A    between atoms: C_11  and  C_12 
    4  A    between atoms: C_12  and  O_13 
    5  A    between atoms: C_12  and  O_14 

>  <TORSDO>
F 5

$$$$
C:\Users\siddh\.mgltools\PyRx\Ligands\ZINC000005783286_uff_E=329.45.pdbqt
 OpenBabel04182118313D

 21 22  0  0  0  0  0  0  0  0999 V2000
   -2.0800    1.9130   -1.1650 C   0  0  0  0  0  0  0  0  0  0  0  0
   -2.0130    3.2730   -1.0990 N   0  0  0  0  0  0  0  0  0  0  0  0
   -1.6630    3.7920   -1.9030 H   0  0  0  0  0  0  0  0  0  0  0  0
   -2.4010    3.9540    0.0100 C   0  0  0  0  0  3  0  0  0  0  0  0
   -2.8900    3.2550    1.1100 C   0  0  0  0  0  3  0  0  0  0  0  0
   -2.9740    1.9020    1.0570 N   0  0  0  0  0  0  0  0  0  0  0  0
   -3.3450    1.3940    1.8600 H   0  0  0  0  0  0  0  0  0  0  0  0
   -2.5750    1.2060   -0.0420 C   0  0  0  0  0  0  0  0  0  0  0  0
   -2.7120   -0.2650   -0.0270 C   0  0  0  0  0  0  0  0  0  0  0  0
   -1.6990   -0.9400    0.0750 O   0  0  0  0  0  0  0  0  0  0  0  0
   -3.9440   -0.8650   -0.1190 N   0  0  0  0  0  0  0  0  0  0  0  0
   -4.0920   -2.3130   -0.0720 C   0  0  0  0  0  2  0  0  0  0  0  0
   -5.1670   -0.1090   -0.3560 C   0  0  0  0  0  2  0  0  0  0  0  0
   -4.8240   -2.7560   -1.3460 C   0  0  0  0  0  2  0  0  0  0  0  0
   -6.0600   -2.0700   -1.4750 O   0  0  0  0  0  0  0  0  0  0  0  0
   -5.8260   -0.6770   -1.6210 C   0  0  0  0  0  2  0  0  0  0  0  0
   -1.6800    1.2520   -2.4340 C   0  0  0  0  0  3  0  0  0  0  0  0
   -1.7330   -0.0870   -2.5810 O   0  0  0  0  0  0  0  0  0  0  0  0
   -1.8300   -0.9780   -2.8530 H   0  0  0  0  0  0  0  0  0  0  0  0
   -1.2840    2.0050   -3.4760 O   0  0  0  0  0  0  0  0  0  0  0  0
   -1.2420    2.9370   -3.3920 H   0  0  0  0  0  0  0  0  0  0  0  0
  1  2  1  0  0  0  0
  1  8  2  0  0  0  0
  2  4  1  0  0  0  0
  3  2  1  0  0  0  0
  4  5  2  0  0  0  0
  6  5  1  0  0  0  0
  6  7  1  0  0  0  0
  8  9  1  0  0  0  0
  8  6  1  0  0  0  0
  9 10  2  0  0  0  0
 11 12  1  0  0  0  0
 11  9  1  0  0  0  0
 13 11  1  0  0  0  0
 14 12  1  0  0  0  0
 15 14  1  0  0  0  0
 16 15  1  0  0  0  0
 16 13  1  0  0  0  0
 17  1  1  0  0  0  0
 18 17  1  0  0  0  0
 19 18  1  0  0  0  0
 20 21  1  0  0  0  0
 20 17  1  0  0  0  0
M  END
>  <REMARK>
  4 active torsions:
  status: ('A' for Active; 'I' for Inactive)
    1  A    between atoms: O_1  and  C_2 
    2  A    between atoms: C_2  and  O_3 
    3  A    between atoms: C_2  and  C_4 
    4  A    between atoms: C_11  and  C_12 
       I    between atoms: C_12  and  N_14 

>  <TORSDO>
F 4

$$$$
C:\Users\siddh\.mgltools\PyRx\Ligands\ZINC000005750376_uff_E=773.97.pdbqt
 OpenBabel04182118313D

 26 28  0  0  1  0  0  0  0  0999 V2000
   -0.0130   -0.0280    0.0000 C   0  0  2  0  0  3  0  0  0  0  0  0
   -1.0990   -0.8520    0.0020 C   0  0  0  0  0  0  0  0  0  0  0  0
   -2.4290   -0.8950    0.0080 N   0  0  0  0  0  0  0  0  0  0  0  0
   -2.7470   -2.1960    0.0030 N   0  0  0  0  0  0  0  0  0  0  0  0
   -1.6410   -2.9600   -0.0060 N   0  0  0  0  0  0  0  0  0  0  0  0
   -1.5810   -3.9780   -0.0120 H   0  0  0  0  0  0  0  0  0  0  0  0
   -0.6370   -2.0740   -0.0070 C   0  0  0  0  0  0  0  0  0  0  0  0
    0.7040   -2.0960   -0.0140 N   0  0  0  0  0  0  0  0  0  0  0  0
    1.0980   -0.8180   -0.0100 N   0  0  0  0  0  0  0  0  0  0  0  0
   -3.0790   -0.0800    0.0160 H   0  0  0  0  0  0  0  0  0  0  0  0
    1.3390   -2.9250   -0.0220 H   0  0  0  0  0  0  0  0  0  0  0  0
    2.0910   -0.4970   -0.0150 H   0  0  0  0  0  0  0  0  0  0  0  0
   -4.0890   -2.7170    0.0050 C   0  0  0  0  0  0  0  0  0  0  0  0
   -4.3040   -4.1050    0.0030 C   0  0  0  0  0  3  0  0  0  0  0  0
   -5.6010   -4.6190    0.0060 C   0  0  0  0  0  3  0  0  0  0  0  0
   -6.7060   -3.7540    0.0110 C   0  0  0  0  0  0  0  0  0  0  0  0
   -6.4970   -2.3680    0.0120 C   0  0  0  0  0  3  0  0  0  0  0  0
   -5.2020   -1.8530    0.0100 C   0  0  0  0  0  3  0  0  0  0  0  0
   -8.0780   -4.2970    0.0140 C   0  0  0  0  0  3  0  0  0  0  0  0
   -9.1390   -3.4660    0.0180 O   0  0  0  0  0  0  0  0  0  0  0  0
  -10.0080   -3.8160    0.0190 H   0  0  0  0  0  0  0  0  0  0  0  0
   -8.2820   -5.6280    0.0130 O   0  0  0  0  0  0  0  0  0  0  0  0
   -7.5510   -6.2140    0.0100 H   0  0  0  0  0  0  0  0  0  0  0  0
   -0.0160    1.3810    0.0080 N   0  0  0  0  0  0  0  0  0  0  0  0
    0.8720    1.9000    0.0050 H   0  0  0  0  0  0  0  0  0  0  0  0
   -0.9090    1.8950    0.0160 H   0  0  0  0  0  0  0  0  0  0  0  0
  1  2  1  0  0  0  0
  1 24  1  1  0  0  0
  2  3  1  0  0  0  0
  3 10  1  0  0  0  0
  4 13  1  0  0  0  0
  4  3  1  0  0  0  0
  5  4  1  0  0  0  0
  6  5  1  0  0  0  0
  7  5  1  0  0  0  0
  7  2  2  0  0  0  0
  8  9  1  0  0  0  0
  8  7  1  0  0  0  0
  9  1  1  0  0  0  0
 11  8  1  0  0  0  0
 12  9  1  0  0  0  0
 13 18  1  0  0  0  0
 14 13  2  0  0  0  0
 14 15  1  0  0  0  0
 15 16  2  0  0  0  0
 16 17  1  0  0  0  0
 16 19  1  0  0  0  0
 18 17  2  0  0  0  0
 19 20  1  0  0  0  0
 20 21  1  0  0  0  0
 22 19  1  0  0  0  0
 23 22  1  0  0  0  0
 24 26  1  0  0  0  0
 25 24  1  0  0  0  0
M  END
>  <REMARK>
  5 active torsions:
  status: ('A' for Active; 'I' for Inactive)
    1  A    between atoms: N_1  and  C_2 
    2  A    between atoms: N_5  and  C_6 
    3  A    between atoms: C_9  and  C_10 
    4  A    between atoms: C_10  and  O_11 
    5  A    between atoms: C_10  and  O_12 

>  <TORSDO>
F 5

$$$$
C:\Users\siddh\.mgltools\PyRx\Ligands\ZINC000005713097_uff_E=96.93.pdbqt
 OpenBabel04182118313D

 17 17  0  0  1  0  0  0  0  0999 V2000
    0.0500   -0.0740    0.0050 O   0  0  0  0  0  0  0  0  0  0  0  0
    0.0090    1.1440    0.0010 C   0  0  0  0  0  0  0  0  0  0  0  0
   -1.1970    1.7810    0.0100 N   0  0  0  0  0  0  0  0  0  0  0  0
   -1.2710    3.1470    0.0130 C   0  0  0  0  0  0  0  0  0  0  0  0
   -2.3660    3.6770    0.0160 O   0  0  0  0  0  0  0  0  0  0  0  0
   -0.0850    3.9150    0.0090 C   0  0  0  0  0  0  0  0  0  0  0  0
    1.1400    3.2300   -0.0100 C   0  0  0  0  0  3  0  0  0  0  0  0
    1.1710    1.8700   -0.0110 N   0  0  0  0  0  0  0  0  0  0  0  0
    2.0930    1.3800   -0.0180 H   0  0  0  0  0  0  0  0  0  0  0  0
   -2.0260    1.2500    0.0140 H   0  0  0  0  0  0  0  0  0  0  0  0
   -0.0900    5.4400    0.0360 C   0  0  1  0  0  3  0  0  0  0  0  0
   -0.7570    5.9740   -1.0810 O   0  0  0  0  0  0  0  0  0  0  0  0
   -1.7180    5.7460   -1.0160 H   0  0  0  0  0  0  0  0  0  0  0  0
   -0.6340    6.0010    1.3660 C   0  0  0  0  0  0  0  0  0  0  0  0
    0.1400    5.5280    2.4120 F   0  0  0  0  0  0  0  0  0  0  0  0
   -0.5660    7.3810    1.3550 F   0  0  0  0  0  0  0  0  0  0  0  0
   -1.9470    5.6340    1.5890 F   0  0  0  0  0  0  0  0  0  0  0  0
  2  1  2  0  0  0  0
  2  3  1  0  0  0  0
  3  4  1  0  0  0  0
  3 10  1  0  0  0  0
  4  5  2  0  0  0  0
  6  4  1  0  0  0  0
  6 11  1  0  0  0  0
  7  6  2  0  0  0  0
  8  7  1  0  0  0  0
  8  2  1  0  0  0  0
  9  8  1  0  0  0  0
 11 12  1  6  0  0  0
 11 14  1  0  0  0  0
 12 13  1  0  0  0  0
 14 17  1  0  0  0  0
 14 15  1  0  0  0  0
 16 14  1  0  0  0  0
M  END
>  <REMARK>
  3 active torsions:
  status: ('A' for Active; 'I' for Inactive)
    1  A    between atoms: C_6  and  C_7 
    2  A    between atoms: C_7  and  O_8 
    3  A    between atoms: C_7  and  C_9 

>  <TORSDO>
F 3

$$$$
C:\Users\siddh\.mgltools\PyRx\Ligands\ZINC000005700396_uff_E=358.13.pdbqt
 OpenBabel04182118313D

 18 19  0  0  1  0  0  0  0  0999 V2000
    1.4290   -2.5720    2.3220 C   0  0  0  0  0  0  0  0  0  0  0  0
    0.7130   -2.9050    3.4990 C   0  0  0  0  0  3  0  0  0  0  0  0
    1.4330   -3.2820    4.6410 C   0  0  0  0  0  0  0  0  0  0  0  0
    0.8630   -3.5630    5.6800 O   0  0  0  0  0  0  0  0  0  0  0  0
    2.7930   -3.3160    4.5530 N   0  0  0  0  0  0  0  0  0  0  0  0
    3.6750   -3.6400    5.4790 N   0  0  0  0  0  0  0  0  0  0  0  0
    3.4840   -3.9270    6.4380 H   0  0  0  0  0  0  0  0  0  0  0  0
    4.8890   -3.5120    4.8880 C   0  0  0  0  0  2  0  0  0  0  0  0
    4.7770   -3.1050    3.5950 N   0  0  0  0  0  0  0  0  0  0  0  0
    3.4470   -2.9980    3.4400 C   0  0  2  0  0  3  0  0  0  0  0  0
    2.7990   -2.6130    2.3140 N   0  0  0  0  0  0  0  0  0  0  0  0
    3.3200   -2.3570    1.4760 H   0  0  0  0  0  0  0  0  0  0  0  0
    5.4900   -2.9310    2.9390 H   0  0  0  0  0  0  0  0  0  0  0  0
    0.6940   -2.0900    1.1030 C   0  0  0  0  0  2  0  0  0  0  0  0
    0.6690   -0.5820    1.0640 C   0  0  0  0  0  0  0  0  0  0  0  0
    1.1920    0.0660    1.9640 O   0  0  0  0  0  0  0  0  0  0  0  0
    0.0420    0.0560    0.0450 O   0  0  0  0  0  0  0  0  0  0  0  0
   -0.0300    1.4330   -0.0180 C   0  0  0  0  0  1  0  0  0  0  0  0
  1  2  2  0  0  0  0
  2  3  1  0  0  0  0
  3  4  2  0  0  0  0
  5  3  1  0  0  0  0
  5  6  1  0  0  0  0
  6  7  1  0  0  0  0
  8  6  1  0  0  0  0
  9  8  1  0  0  0  0
 10 11  1  1  0  0  0
 10  9  1  0  0  0  0
 10  5  1  0  0  0  0
 11  1  1  0  0  0  0
 12 11  1  0  0  0  0
 13  9  1  0  0  0  0
 14  1  1  0  0  0  0
 15 14  1  0  0  0  0
 15 16  2  0  0  0  0
 17 15  1  0  0  0  0
 18 17  1  0  0  0  0
M  END
>  <REMARK>
  3 active torsions:
  status: ('A' for Active; 'I' for Inactive)
    1  A    between atoms: O_2  and  C_3 
    2  A    between atoms: C_3  and  C_5 
    3  A    between atoms: C_5  and  C_6 

>  <TORSDO>
F 3

$$$$
C:\Users\siddh\.mgltools\PyRx\Ligands\ZINC000005613886_uff_E=514.20.pdbqt
 OpenBabel04182118313D

 21 21  0  0  0  0  0  0  0  0999 V2000
    0.0990   -2.8720    2.7170 S   0  0  0  0  0  0  0  0  0  0  0  0
   -0.2780   -1.9460    3.8840 O   0  0  0  0  0  0  0  0  0  0  0  0
   -1.0960   -3.8370    2.7040 O   0  0  0  0  0  0  0  0  0  0  0  0
    0.2890   -2.0070    1.1520 C   0  0  0  0  0  0  0  0  0  0  0  0
    0.4780   -2.6970   -0.0650 C   0  0  0  0  0  0  0  0  0  0  0  0
    0.6240   -1.9750   -1.2570 C   0  0  0  0  0  3  0  0  0  0  0  0
    0.5790   -0.5770   -1.2470 C   0  0  0  0  0  3  0  0  0  0  0  0
    0.3860    0.1120   -0.0440 C   0  0  0  0  0  0  0  0  0  0  0  0
    0.3400    1.6120   -0.0280 C   0  0  0  0  0  1  0  0  0  0  0  0
    0.2450   -0.6030    1.1510 C   0  0  0  0  0  3  0  0  0  0  0  0
    0.5250   -4.1220   -0.1120 N   0  0  0  0  0  0  0  0  0  0  0  0
    0.6520   -4.6060   -1.0100 H   0  0  0  0  0  0  0  0  0  0  0  0
    0.4270   -4.6920    0.7350 H   0  0  0  0  0  0  0  0  0  0  0  0
    1.4550   -3.8390    3.3170 N   0  0  0  0  0  0  0  0  0  0  0  0
    1.5670   -4.6760    2.7020 H   0  0  0  0  0  0  0  0  0  0  0  0
    2.6880   -3.0500    3.3170 C   0  0  0  0  0  2  0  0  0  0  0  0
    3.8270   -3.8660    3.8630 C   0  0  0  0  0  3  0  0  0  0  0  0
    3.6460   -5.1590    4.1990 O   0  0  0  0  0  0  0  0  0  0  0  0
    4.3620   -5.6600    4.5380 H   0  0  0  0  0  0  0  0  0  0  0  0
    5.0380   -3.3020    4.0230 O   0  0  0  0  0  0  0  0  0  0  0  0
    5.1710   -2.4040    3.7920 H   0  0  0  0  0  0  0  0  0  0  0  0
  1 14  1  0  0  0  0
  1  2  2  0  0  0  0
  3  1  2  0  0  0  0
  4  1  1  0  0  0  0
  5  4  2  0  0  0  0
  6  7  2  0  0  0  0
  6  5  1  0  0  0  0
  7  8  1  0  0  0  0
  8  9  1  0  0  0  0
  8 10  2  0  0  0  0
 10  4  1  0  0  0  0
 11  5  1  0  0  0  0
 11 13  1  0  0  0  0
 12 11  1  0  0  0  0
 14 16  1  0  0  0  0
 15 14  1  0  0  0  0
 16 17  1  0  0  0  0
 17 20  1  0  0  0  0
 17 18  1  0  0  0  0
 18 19  1  0  0  0  0
 21 20  1  0  0  0  0
M  END
>  <REMARK>
  7 active torsions:
  status: ('A' for Active; 'I' for Inactive)
    1  A    between atoms: C_5  and  N_6 
    2  A    between atoms: C_7  and  S_8 
    3  A    between atoms: S_8  and  N_11 
    4  A    between atoms: N_11  and  C_12 
    5  A    between atoms: C_12  and  C_13 
    6  A    between atoms: C_13  and  O_14 
    7  A    between atoms: C_13  and  O_15 

>  <TORSDO>
F 7

$$$$
C:\Users\siddh\.mgltools\PyRx\Ligands\ZINC000005555515_uff_E=516.55.pdbqt
 OpenBabel04182118313D

 19 19  0  0  0  0  0  0  0  0999 V2000
    1.7350   -0.4960   -0.0250 C   0  0  0  0  0  0  0  0  0  0  0  0
    2.3450   -0.6860   -1.2630 C   0  0  0  0  0  3  0  0  0  0  0  0
    3.6870   -1.0520   -1.3290 C   0  0  0  0  0  3  0  0  0  0  0  0
    4.4450   -1.2320   -0.1640 C   0  0  0  0  0  0  0  0  0  0  0  0
    3.8210   -1.0750    1.1140 C   0  0  0  0  0  0  0  0  0  0  0  0
    2.4610   -0.6980    1.1500 C   0  0  0  0  0  3  0  0  0  0  0  0
    0.0330    0.0550    0.0630 S   0  0  0  0  0  0  0  0  0  0  0  0
   -0.7620   -0.6060    1.1990 O   0  0  0  0  0  0  0  0  0  0  0  0
   -0.7960   -0.2970   -1.1820 O   0  0  0  0  0  0  0  0  0  0  0  0
   -0.1810    1.7930    0.3000 N   0  0  0  0  0  0  0  0  0  0  0  0
    0.6370    2.2710   -0.1410 H   0  0  0  0  0  0  0  0  0  0  0  0
   -1.0380    2.0990   -0.2110 H   0  0  0  0  0  0  0  0  0  0  0  0
    4.5140   -1.2870    2.4260 C   0  0  0  0  0  3  0  0  0  0  0  0
    3.8440   -1.0790    3.5770 O   0  0  0  0  0  0  0  0  0  0  0  0
    4.2730   -1.2100    4.3990 H   0  0  0  0  0  0  0  0  0  0  0  0
    5.7830   -1.7240    2.5020 O   0  0  0  0  0  0  0  0  0  0  0  0
    6.2730   -1.8770    1.7190 H   0  0  0  0  0  0  0  0  0  0  0  0
    5.7540   -1.5300   -0.3260 O   0  0  0  0  0  0  0  0  0  0  0  0
    6.4150   -1.5340    0.3710 H   0  0  0  0  0  0  0  0  0  0  0  0
  1  7  1  0  0  0  0
  1  6  1  0  0  0  0
  2  1  2  0  0  0  0
  3  2  1  0  0  0  0
  3  4  2  0  0  0  0
  4  5  1  0  0  0  0
  5  6  2  0  0  0  0
  5 13  1  0  0  0  0
  7 10  1  0  0  0  0
  7  8  2  0  0  0  0
  9  7  2  0  0  0  0
 11 10  1  0  0  0  0
 12 10  1  0  0  0  0
 13 16  1  0  0  0  0
 13 14  1  0  0  0  0
 14 15  1  0  0  0  0
 17 16  1  0  0  0  0
 18  4  1  0  0  0  0
 18 19  1  0  0  0  0
M  END
>  <REMARK>
  6 active torsions:
  status: ('A' for Active; 'I' for Inactive)
    1  A    between atoms: N_1  and  S_2 
    2  A    between atoms: S_2  and  C_5 
    3  A    between atoms: C_8  and  O_9 
    4  A    between atoms: C_10  and  C_11 
    5  A    between atoms: C_11  and  O_12 
    6  A    between atoms: C_11  and  O_13 

>  <TORSDO>
F 6

$$$$
C:\Users\siddh\.mgltools\PyRx\Ligands\ZINC000005350117_uff_E=123.89.pdbqt
 OpenBabel04182118313D

 16 16  0  0  1  0  0  0  0  0999 V2000
   -0.8650   -3.8490   -1.0280 C   0  0  1  0  0  3  0  0  0  0  0  0
    0.1930   -4.6930   -0.8960 N   0  0  0  0  0  0  0  0  0  0  0  0
    1.1350   -4.3060   -0.8470 H   0  0  0  0  0  0  0  0  0  0  0  0
    0.0260   -6.0330   -0.8260 C   0  0  0  0  0  3  0  0  0  0  0  0
   -1.2630   -6.5840   -0.8920 C   0  0  0  0  0  0  0  0  0  0  0  0
   -2.3470   -5.7050   -1.0310 C   0  0  0  0  0  0  0  0  0  0  0  0
   -3.4850   -6.1360   -1.0950 O   0  0  0  0  0  0  0  0  0  0  0  0
   -2.1260   -4.3510   -1.0960 N   0  0  0  0  0  0  0  0  0  0  0  0
   -2.8900   -3.7380   -1.1920 H   0  0  0  0  0  0  0  0  0  0  0  0
   -0.6610   -2.5120   -1.0910 O   0  0  0  0  0  0  0  0  0  0  0  0
    0.6150   -1.9780   -1.0620 C   0  0  0  0  0  2  0  0  0  0  0  0
    0.5780   -0.4610   -1.1280 C   0  0  0  0  0  2  0  0  0  0  0  0
   -0.1030    0.0390    0.0010 O   0  0  0  0  0  0  0  0  0  0  0  0
   -0.0400    1.4460   -0.0130 C   0  0  0  0  0  1  0  0  0  0  0  0
   -1.4780   -7.9260   -0.8240 O   0  0  0  0  0  0  0  0  0  0  0  0
   -0.4760   -8.8670   -0.6800 C   0  0  0  0  0  1  0  0  0  0  0  0
  1 10  1  1  0  0  0
  1  2  1  0  0  0  0
  2  3  1  0  0  0  0
  2  4  1  0  0  0  0
  5  4  2  0  0  0  0
  5 15  1  0  0  0  0
  6  5  1  0  0  0  0
  7  6  2  0  0  0  0
  8  6  1  0  0  0  0
  8  1  1  0  0  0  0
  9  8  1  0  0  0  0
 10 11  1  0  0  0  0
 12 11  1  0  0  0  0
 12 13  1  0  0  0  0
 14 13  1  0  0  0  0
 15 16  1  0  0  0  0
M  END
>  <REMARK>
  5 active torsions:
  status: ('A' for Active; 'I' for Inactive)
    1  A    between atoms: O_2  and  C_3 
    2  A    between atoms: C_3  and  C_4 
    3  A    between atoms: C_4  and  O_5 
    4  A    between atoms: O_5  and  C_6 
    5  A    between atoms: C_10  and  O_11 

>  <TORSDO>
F 5

$$$$
C:\Users\siddh\.mgltools\PyRx\Ligands\ZINC000005331413_uff_E=143.43.pdbqt
 OpenBabel04182118313D

 20 20  0  0  0  0  0  0  0  0999 V2000
   -0.0010   -0.1140    0.0010 O   0  0  0  0  0  0  0  0  0  0  0  0
   -0.0510    1.2340    0.0080 C   0  0  0  0  0  3  0  0  0  0  0  0
    0.0930   -1.0460   -0.0110 H   0  0  0  0  0  0  0  0  0  0  0  0
    1.0940    1.9400    0.0040 O   0  0  0  0  0  0  0  0  0  0  0  0
    1.0670    2.8770    0.0080 H   0  0  0  0  0  0  0  0  0  0  0  0
   -1.3720    1.9460    0.0190 C   0  0  0  0  0  2  0  0  0  0  0  0
   -2.4000    0.9820    0.0190 O   0  0  0  0  0  0  0  0  0  0  0  0
   -3.6720    1.5970    0.0280 C   0  0  0  0  0  2  0  0  0  0  0  0
   -4.7240    0.5160    0.0290 C   0  0  0  0  0  0  0  0  0  0  0  0
   -4.3840   -0.6590    0.0210 O   0  0  0  0  0  0  0  0  0  0  0  0
   -6.0440    0.8440    0.0380 N   0  0  0  0  0  0  0  0  0  0  0  0
   -6.3180    1.8380    0.0430 H   0  0  0  0  0  0  0  0  0  0  0  0
   -7.0680   -0.1870    0.0390 C   0  0  0  0  0  2  0  0  0  0  0  0
   -8.4360    0.4280    0.0390 C   0  0  0  0  0  0  0  0  0  0  0  0
   -9.0770    0.7220   -1.1720 C   0  0  0  0  0  2  0  0  0  0  0  0
  -10.3130    1.2880   -1.1700 N   0  0  0  0  0  0  0  0  0  0  0  0
  -10.9570    1.5850   -0.0090 C   0  0  0  0  0  3  0  0  0  0  0  0
  -10.7680    1.4960   -2.0590 H   0  0  0  0  0  0  0  0  0  0  0  0
  -10.3520    1.3090    1.2200 C   0  0  0  0  0  3  0  0  0  0  0  0
   -9.0840    0.7270    1.2430 C   0  0  0  0  0  3  0  0  0  0  0  0
  1  2  1  0  0  0  0
  2  6  1  0  0  0  0
  3  1  1  0  0  0  0
  4  2  1  0  0  0  0
  4  5  1  0  0  0  0
  6  7  1  0  0  0  0
  7  8  1  0  0  0  0
  8  9  1  0  0  0  0
  9 11  1  0  0  0  0
 10  9  2  0  0  0  0
 11 13  1  0  0  0  0
 11 12  1  0  0  0  0
 13 14  1  0  0  0  0
 14 20  2  0  0  0  0
 15 16  1  0  0  0  0
 15 14  1  0  0  0  0
 16 17  1  0  0  0  0
 17 19  2  0  0  0  0
 18 16  1  0  0  0  0
 19 20  1  0  0  0  0
M  END
>  <REMARK>
  7 active torsions:
  status: ('A' for Active; 'I' for Inactive)
    1  A    between atoms: C_2  and  O_3 
    2  A    between atoms: C_2  and  C_4 
    3  A    between atoms: C_4  and  O_5 
    4  A    between atoms: O_5  and  C_6 
    5  A    between atoms: C_6  and  C_7 
       I    between atoms: C_7  and  N_9 
    6  A    between atoms: N_9  and  C_10 
    7  A    between atoms: C_10  and  C_11 

>  <TORSDO>
F 7

$$$$
C:\Users\siddh\.mgltools\PyRx\Ligands\ZINC000005242230_uff_E=609.43.pdbqt
 OpenBabel04182118313D

 21 23  0  0  1  0  0  0  0  0999 V2000
   -0.0190    1.5080    0.0400 C   0  0  0  0  0  1  0  0  0  0  0  0
    0.0010    0.0110    0.0320 C   0  0  1  0  0  3  0  0  0  0  0  0
    0.0080   -0.6900   -1.1820 C   0  0  0  0  0  3  0  0  0  0  0  0
    0.0270   -2.1040   -1.1600 C   0  0  0  0  0  0  0  0  0  0  0  0
    0.0410   -2.7690    0.0370 N   0  0  0  0  0  0  0  0  0  0  0  0
    0.0550   -3.7880    0.0660 H   0  0  0  0  0  0  0  0  0  0  0  0
    0.0370   -2.0470    1.1850 C   0  0  2  0  0  3  0  0  0  0  0  0
    0.0500   -2.5400    2.4340 N   0  0  0  0  0  0  0  0  0  0  0  0
    0.0650   -3.5150    2.7350 H   0  0  0  0  0  0  0  0  0  0  0  0
    0.0390   -1.4150    3.1960 C   0  0  0  0  0  2  0  0  0  0  0  0
    0.0190   -0.2940    2.4310 N   0  0  0  0  0  0  0  0  0  0  0  0
    0.0080    0.6730    2.7550 H   0  0  0  0  0  0  0  0  0  0  0  0
    0.0180   -0.7150    1.1800 N   0  0  2  0  0  0  0  0  0  0  0  0
    0.0320   -2.8620   -2.4200 C   0  0  1  0  0  3  0  0  0  0  0  0
    0.0470   -4.2020   -2.5100 N   0  0  0  0  0  0  0  0  0  0  0  0
    0.0450   -4.4690   -3.8070 N   0  0  0  0  0  2  0  0  0  0  0  0
    0.0570   -4.8730   -1.7420 H   0  0  0  0  0  0  0  0  0  0  0  0
    0.0300   -3.3340   -4.4910 N   0  0  0  0  0  0  0  0  0  0  0  0
    0.0210   -2.3140   -3.6490 N   0  0  0  0  0  0  0  0  0  0  0  0
    0.0260   -3.2620   -5.4720 H   0  0  0  0  0  0  0  0  0  0  0  0
    0.0090   -1.3210   -3.8820 H   0  0  0  0  0  0  0  0  0  0  0  0
  2  1  1  6  0  0  0
  2 13  1  0  0  0  0
  3  4  2  0  0  0  0
  3  2  1  0  0  0  0
  4  5  1  0  0  0  0
  5  6  1  0  0  0  0
  7  5  1  1  0  0  0
  7  8  1  0  0  0  0
  8  9  1  0  0  0  0
  8 10  1  0  0  0  0
 11 12  1  0  0  0  0
 11 10  1  0  0  0  0
 13  7  1  0  0  0  0
 13 11  1  1  0  0  0
 14  4  1  1  0  0  0
 15 14  1  0  0  0  0
 15 17  1  0  0  0  0
 16 15  1  0  0  0  0
 18 16  1  0  0  0  0
 18 19  1  0  0  0  0
 19 14  1  0  0  0  0
 20 18  1  0  0  0  0
 21 19  1  0  0  0  0
M  END
>  <REMARK>
  1 active torsions:
  status: ('A' for Active; 'I' for Inactive)
    1  A    between atoms: C_4  and  C_5 

>  <TORSDO>
F 1

$$$$
C:\Users\siddh\.mgltools\PyRx\Ligands\ZINC000005133422_uff_E=343.08.pdbqt
 OpenBabel04182118313D

 19 20  0  0  1  0  0  0  0  0999 V2000
   -1.3310    1.9210    0.0320 C   0  0  2  0  0  3  0  0  0  0  0  0
   -1.9890    1.8010   -1.3420 C   0  0  0  0  0  2  0  0  0  0  0  0
   -2.8670    3.3420   -1.6720 S   0  0  0  0  0  0  0  0  0  0  0  0
   -1.6000    4.2450   -0.7240 C   0  0  0  0  0  2  0  0  0  0  0  0
   -1.0740    3.3320    0.2700 N   0  0  0  0  0  0  0  0  0  0  0  0
   -0.4370    3.7630    1.4120 C   0  0  0  0  0  0  0  0  0  0  0  0
   -0.0370    2.9350    2.2240 O   0  0  0  0  0  0  0  0  0  0  0  0
   -0.0720    1.0750    0.0240 C   0  0  0  0  0  3  0  0  0  0  0  0
   -0.1630   -0.2590   -0.1310 O   0  0  0  0  0  0  0  0  0  0  0  0
   -0.3320   -1.1360   -0.4170 H   0  0  0  0  0  0  0  0  0  0  0  0
    1.1460    1.6450    0.1240 O   0  0  0  0  0  0  0  0  0  0  0  0
    1.2220    2.5730    0.2320 H   0  0  0  0  0  0  0  0  0  0  0  0
   -0.2110    5.2360    1.7260 C   0  0  2  0  0  3  0  0  0  0  0  0
    0.6720    5.4000    2.8520 N   0  0  0  0  0  0  0  0  0  0  0  0
    0.2440    6.3430    3.6980 C   0  0  0  0  0  0  0  0  0  0  0  0
    1.5990    4.9530    2.9280 H   0  0  0  0  0  0  0  0  0  0  0  0
   -1.0280    6.9720    3.2770 C   0  0  0  0  0  2  0  0  0  0  0  0
    0.9130    6.7250    4.6450 O   0  0  0  0  0  0  0  0  0  0  0  0
   -1.4990    5.9370    2.2420 C   0  0  0  0  0  2  0  0  0  0  0  0
  1  8  1  6  0  0  0
  1  5  1  0  0  0  0
  2  1  1  0  0  0  0
  3  2  1  0  0  0  0
  3  4  1  0  0  0  0
  4  5  1  0  0  0  0
  5  6  1  0  0  0  0
  6  7  2  0  0  0  0
  8 11  1  0  0  0  0
  9  8  1  0  0  0  0
 10  9  1  0  0  0  0
 11 12  1  0  0  0  0
 13  6  1  1  0  0  0
 13 19  1  0  0  0  0
 13 14  1  0  0  0  0
 14 16  1  0  0  0  0
 14 15  1  0  0  0  0
 15 18  2  0  0  0  0
 17 15  1  0  0  0  0
 19 17  1  0  0  0  0
M  END
>  <REMARK>
  4 active torsions:
  status: ('A' for Active; 'I' for Inactive)
    1  A    between atoms: O_1  and  C_2 
    2  A    between atoms: C_2  and  O_3 
    3  A    between atoms: C_2  and  C_4 
       I    between atoms: N_8  and  C_9 
    4  A    between atoms: C_9  and  C_11 

>  <TORSDO>
F 4

$$$$
C:\Users\siddh\.mgltools\PyRx\Ligands\ZINC000004992763_uff_E=371.51.pdbqt
 OpenBabel04182118313D

 21 22  0  0  1  0  0  0  0  0999 V2000
   -0.0180    1.4670    0.0340 C   0  0  0  0  0  1  0  0  0  0  0  0
    0.0020   -0.0280    0.0110 C   0  0  1  0  0  3  0  0  0  0  0  0
    0.0120   -0.7770   -1.1180 N   0  0  0  0  0  0  0  0  0  0  0  0
    0.0060   -0.4260   -2.0750 H   0  0  0  0  0  0  0  0  0  0  0  0
    0.0300   -2.0570   -0.7450 N   0  0  0  0  0  0  0  0  0  0  0  0
    0.0390   -2.8710   -1.3600 H   0  0  0  0  0  0  0  0  0  0  0  0
    0.0330   -2.0660    0.6010 C   0  0  0  0  0  0  0  0  0  0  0  0
    0.0500   -3.1630    1.4480 C   0  0  0  0  0  3  0  0  0  0  0  0
    0.0520   -2.9030    2.8250 C   0  0  0  0  0  3  0  0  0  0  0  0
    0.0350   -1.5670    3.2890 C   0  0  0  0  0  0  0  0  0  0  0  0
    0.0180   -0.5380    2.3860 N   0  0  0  0  0  0  0  0  0  0  0  0
    0.0050    0.4320    2.7020 H   0  0  0  0  0  0  0  0  0  0  0  0
    0.0170   -0.8270    1.0860 N   0  0  0  0  0  0  0  0  0  0  0  0
    0.0370   -1.3070    4.6830 N   0  0  0  0  0  0  0  0  0  0  0  0
    0.0510   -2.1100    5.3280 H   0  0  0  0  0  0  0  0  0  0  0  0
    0.0210    0.0500    5.1950 C   0  0  0  0  0  2  0  0  0  0  0  0
    0.0260    0.0950    6.7010 C   0  0  0  0  0  3  0  0  0  0  0  0
    0.0440   -1.0350    7.4360 O   0  0  0  0  0  0  0  0  0  0  0  0
    0.0470   -0.9850    8.3720 H   0  0  0  0  0  0  0  0  0  0  0  0
    0.0120    1.2860    7.3250 O   0  0  0  0  0  0  0  0  0  0  0  0
   -0.0000    2.0780    6.8240 H   0  0  0  0  0  0  0  0  0  0  0  0
  2  1  1  6  0  0  0
  2 13  1  0  0  0  0
  3  5  1  0  0  0  0
  3  2  1  0  0  0  0
  4  3  1  0  0  0  0
  5  7  1  0  0  0  0
  6  5  1  0  0  0  0
  7 13  1  0  0  0  0
  7  8  2  0  0  0  0
  8  9  1  0  0  0  0
  9 10  2  0  0  0  0
 10 14  1  0  0  0  0
 11 12  1  0  0  0  0
 11 10  1  0  0  0  0
 13 11  1  0  0  0  0
 14 16  1  0  0  0  0
 14 15  1  0  0  0  0
 16 17  1  0  0  0  0
 17 20  1  0  0  0  0
 17 18  1  0  0  0  0
 18 19  1  0  0  0  0
 21 20  1  0  0  0  0
M  END
>  <REMARK>
  5 active torsions:
  status: ('A' for Active; 'I' for Inactive)
    1  A    between atoms: C_10  and  N_11 
    2  A    between atoms: N_11  and  C_12 
    3  A    between atoms: C_12  and  C_13 
    4  A    between atoms: C_13  and  O_14 
    5  A    between atoms: C_13  and  O_15 

>  <TORSDO>
F 5

$$$$
C:\Users\siddh\.mgltools\PyRx\Ligands\ZINC000004954360_uff_E=452.33.pdbqt
 OpenBabel04182118313D

 19 20  0  0  0  0  0  0  0  0999 V2000
   -0.7590    1.9470    1.5300 C   0  0  0  0  0  0  0  0  0  0  0  0
   -0.4010    3.1560    2.1340 C   0  0  0  0  0  3  0  0  0  0  0  0
   -0.9960    3.5390    3.3380 C   0  0  0  0  0  3  0  0  0  0  0  0
   -1.9570    2.7130    3.9490 C   0  0  0  0  0  0  0  0  0  0  0  0
   -2.3100    1.4990    3.3290 C   0  0  0  0  0  3  0  0  0  0  0  0
   -1.7140    1.1220    2.1280 C   0  0  0  0  0  3  0  0  0  0  0  0
    0.0040    1.4460   -0.0260 S   0  0  0  0  0  0  0  0  0  0  0  0
    0.0570   -0.2790   -0.0870 O   0  0  0  0  0  0  0  0  0  0  0  0
    0.4650   -0.5610   -0.9200 H   0  0  0  0  0  0  0  0  0  0  0  0
    1.6060    2.0840   -0.0920 O   0  0  0  0  0  0  0  0  0  0  0  0
    2.0250    1.8210   -0.9260 H   0  0  0  0  0  0  0  0  0  0  0  0
   -0.9490    2.0650   -1.3250 O   0  0  0  0  0  0  0  0  0  0  0  0
   -0.5520    1.8040   -2.1710 H   0  0  0  0  0  0  0  0  0  0  0  0
   -2.5690    3.1080    5.1900 N   0  0  0  0  0  0  0  0  0  0  0  0
   -2.3050    4.2290    5.8410 N   0  0  0  0  0  0  0  0  0  0  0  0
   -3.0440    4.2690    6.9380 N   0  0  0  0  0  0  0  0  0  0  0  0
   -3.7930    3.1760    7.0080 N   0  0  0  0  0  0  0  0  0  0  0  0
   -3.4930    2.4540    5.9150 C   0  0  0  0  0  2  0  0  0  0  0  0
   -4.4600    2.9330    7.7420 H   0  0  0  0  0  0  0  0  0  0  0  0
  1  6  2  0  0  0  0
  1  2  1  0  0  0  0
  2  3  2  0  0  0  0
  3  4  1  0  0  0  0
  4 14  1  0  0  0  0
  5  4  2  0  0  0  0
  6  5  1  0  0  0  0
  7  1  1  0  0  0  0
  8  7  1  0  0  0  0
  9  8  1  0  0  0  0
 10  7  1  0  0  0  0
 11 10  1  0  0  0  0
 12  7  1  0  0  0  0
 13 12  1  0  0  0  0
 14 15  1  0  0  0  0
 14 18  1  0  0  0  0
 15 16  2  0  0  0  0
 16 17  1  0  0  0  0
 17 19  1  0  0  0  0
 18 17  1  0  0  0  0
M  END
>  <REMARK>
  5 active torsions:
  status: ('A' for Active; 'I' for Inactive)
    1  A    between atoms: O_1  and  S_2 
    2  A    between atoms: S_2  and  O_3 
    3  A    between atoms: S_2  and  O_4 
    4  A    between atoms: S_2  and  C_5 
    5  A    between atoms: C_8  and  N_9 

>  <TORSDO>
F 5

$$$$
C:\Users\siddh\.mgltools\PyRx\Ligands\ZINC000004943314_uff_E=278.45.pdbqt
 OpenBabel04182118313D

 16 16  0  0  1  0  0  0  0  0999 V2000
    1.4450   -2.4810    0.1700 N   0  0  0  0  0  0  0  0  0  0  0  0
    2.5420   -3.4030    0.0160 C   0  0  0  0  0  2  0  0  0  0  0  0
    3.2970   -3.2590    1.3620 C   0  0  2  0  0  3  0  0  0  0  0  0
    2.1840   -2.8960    2.3750 C   0  0  0  0  0  2  0  0  0  0  0  0
    1.2180   -2.2190    1.4750 C   0  0  0  0  0  0  0  0  0  0  0  0
    0.2500   -1.6010    1.8840 O   0  0  0  0  0  0  0  0  0  0  0  0
    0.6130   -2.0510   -0.9580 C   0  0  1  0  0  3  0  0  0  0  0  0
   -0.8110   -2.6160   -0.8600 C   0  0  0  0  0  1  0  0  0  0  0  0
    0.6090   -0.5150   -1.1170 C   0  0  0  0  0  2  0  0  0  0  0  0
   -0.0470    0.0930   -0.0250 O   0  0  0  0  0  0  0  0  0  0  0  0
    0.0410    1.4930   -0.1260 C   0  0  0  0  0  1  0  0  0  0  0  0
    4.3010   -2.1150    1.2950 C   0  0  0  0  0  3  0  0  0  0  0  0
    4.9830   -1.7650    2.4030 O   0  0  0  0  0  0  0  0  0  0  0  0
    5.6020   -1.0620    2.3690 H   0  0  0  0  0  0  0  0  0  0  0  0
    4.5520   -1.4680    0.1390 O   0  0  0  0  0  0  0  0  0  0  0  0
    4.0860   -1.7010   -0.6400 H   0  0  0  0  0  0  0  0  0  0  0  0
  1  5  1  0  0  0  0
  2  1  1  0  0  0  0
  2  3  1  0  0  0  0
  3 12  1  6  0  0  0
  3  4  1  0  0  0  0
  5  6  2  0  0  0  0
  5  4  1  0  0  0  0
  7  8  1  1  0  0  0
  7  1  1  0  0  0  0
  9  7  1  0  0  0  0
  9 10  1  0  0  0  0
 11 10  1  0  0  0  0
 12 13  1  0  0  0  0
 14 13  1  0  0  0  0
 15 12  1  0  0  0  0
 16 15  1  0  0  0  0
M  END
>  <REMARK>
  6 active torsions:
  status: ('A' for Active; 'I' for Inactive)
    1  A    between atoms: O_2  and  C_3 
    2  A    between atoms: C_3  and  C_4 
    3  A    between atoms: C_4  and  N_6 
    4  A    between atoms: C_8  and  C_9 
    5  A    between atoms: C_9  and  O_10 
    6  A    between atoms: C_9  and  O_11 

>  <TORSDO>
F 6

$$$$
C:\Users\siddh\.mgltools\PyRx\Ligands\ZINC000004943313_uff_E=259.46.pdbqt
 OpenBabel04182118313D

 16 16  0  0  1  0  0  0  0  0999 V2000
   -0.8110   -2.6050   -1.0350 N   0  0  0  0  0  0  0  0  0  0  0  0
   -1.2710   -3.4020   -2.1430 C   0  0  0  0  0  2  0  0  0  0  0  0
   -2.6430   -3.9030   -1.6460 C   0  0  1  0  0  3  0  0  0  0  0  0
   -3.1270   -2.8590   -0.6290 C   0  0  0  0  0  2  0  0  0  0  0  0
   -1.8190   -2.3290   -0.1770 C   0  0  0  0  0  0  0  0  0  0  0  0
   -1.6980   -1.6190    0.8050 O   0  0  0  0  0  0  0  0  0  0  0  0
    0.5600   -2.0870   -0.9600 C   0  0  2  0  0  3  0  0  0  0  0  0
    1.2670   -2.5850    0.3050 C   0  0  0  0  0  1  0  0  0  0  0  0
    0.6200   -0.5470   -1.0790 C   0  0  0  0  0  2  0  0  0  0  0  0
    0.0430    0.0620    0.0560 O   0  0  0  0  0  0  0  0  0  0  0  0
    0.0500    1.4620   -0.0830 C   0  0  0  0  0  1  0  0  0  0  0  0
   -3.6370   -4.2190   -2.7240 C   0  0  0  0  0  3  0  0  0  0  0  0
   -4.1630   -5.4540   -2.8220 O   0  0  0  0  0  0  0  0  0  0  0  0
   -4.7830   -5.6470   -3.4970 H   0  0  0  0  0  0  0  0  0  0  0  0
   -4.0170   -3.2600   -3.5920 O   0  0  0  0  0  0  0  0  0  0  0  0
   -3.6530   -2.3990   -3.5270 H   0  0  0  0  0  0  0  0  0  0  0  0
  1  7  1  0  0  0  0
  1  5  1  0  0  0  0
  2  3  1  0  0  0  0
  2  1  1  0  0  0  0
  3 12  1  6  0  0  0
  3  4  1  0  0  0  0
  4  5  1  0  0  0  0
  5  6  2  0  0  0  0
  7  8  1  1  0  0  0
  9  7  1  0  0  0  0
  9 10  1  0  0  0  0
 11 10  1  0  0  0  0
 13 12  1  0  0  0  0
 14 13  1  0  0  0  0
 15 16  1  0  0  0  0
 15 12  1  0  0  0  0
M  END
>  <REMARK>
  6 active torsions:
  status: ('A' for Active; 'I' for Inactive)
    1  A    between atoms: O_2  and  C_3 
    2  A    between atoms: C_3  and  C_4 
    3  A    between atoms: C_4  and  N_6 
    4  A    between atoms: C_8  and  C_9 
    5  A    between atoms: C_9  and  O_10 
    6  A    between atoms: C_9  and  O_11 

>  <TORSDO>
F 6

$$$$
C:\Users\siddh\.mgltools\PyRx\Ligands\ZINC000004899639_uff_E=141.26.pdbqt
 OpenBabel04182118313D

 16 15  0  0  1  0  0  0  0  0999 V2000
   -0.0460   -2.1350   -1.1820 C   0  0  1  0  0  3  0  0  0  0  0  0
   -0.1360   -0.6800   -1.1080 N   0  0  0  0  0  0  0  0  0  0  0  0
    0.1530    0.0120    0.0300 C   0  0  0  0  0  0  0  0  0  0  0  0
    0.0300    1.5100    0.0520 C   0  0  0  0  0  1  0  0  0  0  0  0
    0.5020   -0.5730    1.0440 O   0  0  0  0  0  0  0  0  0  0  0  0
   -0.4400   -0.1540   -1.9390 H   0  0  0  0  0  0  0  0  0  0  0  0
   -0.6140   -2.6590   -2.5170 C   0  0  0  0  0  2  0  0  0  0  0  0
   -2.1090   -2.3360   -2.6530 C   0  0  0  0  0  2  0  0  0  0  0  0
   -2.7960   -3.0990   -4.1660 S   0  0  1  0  0  0  0  0  0  0  0  0
   -4.4480   -2.3450   -3.9630 C   0  0  0  0  0  1  0  0  0  0  0  0
   -2.2980   -1.9660   -5.0780 O   0  0  0  0  0  0  0  0  0  0  0  0
    1.3860   -2.5790   -1.0330 C   0  0  0  0  0  3  0  0  0  0  0  0
    1.7260   -3.4490   -0.0620 O   0  0  0  0  0  0  0  0  0  0  0  0
    2.6160   -3.7240    0.0300 H   0  0  0  0  0  0  0  0  0  0  0  0
    2.3320   -2.1160   -1.8730 O   0  0  0  0  0  0  0  0  0  0  0  0
    2.1010   -1.5100   -2.5510 H   0  0  0  0  0  0  0  0  0  0  0  0
  1  7  1  6  0  0  0
  1  2  1  0  0  0  0
  1 12  1  0  0  0  0
  2  3  1  0  0  0  0
  3  4  1  0  0  0  0
  3  5  2  0  0  0  0
  6  2  1  0  0  0  0
  8  7  1  0  0  0  0
  9 10  1  1  0  0  0
  9  8  1  0  0  0  0
 11  9  2  0  0  0  0
 12 13  1  0  0  0  0
 13 14  1  0  0  0  0
 15 12  1  0  0  0  0
 16 15  1  0  0  0  0
M  END
>  <REMARK>
  7 active torsions:
  status: ('A' for Active; 'I' for Inactive)
       I    between atoms: C_2  and  N_4 
    1  A    between atoms: N_4  and  C_5 
    2  A    between atoms: C_5  and  C_6 
    3  A    between atoms: C_5  and  C_11 
    4  A    between atoms: C_6  and  C_7 
    5  A    between atoms: C_7  and  S_8 
    6  A    between atoms: C_11  and  O_12 
    7  A    between atoms: C_11  and  O_13 

>  <TORSDO>
F 7

$$$$
C:\Users\siddh\.mgltools\PyRx\Ligands\ZINC000004784768_uff_E=193.69.pdbqt
 OpenBabel04182118313D

 18 18  0  0  1  0  0  0  0  0999 V2000
    0.0330   -0.0930    0.0000 O   0  0  0  0  0  0  0  0  0  0  0  0
   -0.0510    1.2520    0.0080 C   0  0  0  0  0  3  0  0  0  0  0  0
    0.1910   -1.0170   -0.0130 H   0  0  0  0  0  0  0  0  0  0  0  0
    1.0760    1.9880    0.0060 O   0  0  0  0  0  0  0  0  0  0  0  0
    1.0240    2.9240    0.0110 H   0  0  0  0  0  0  0  0  0  0  0  0
   -1.3870    1.9330    0.0180 C   0  0  0  0  0  2  0  0  0  0  0  0
   -2.4050    0.9560    0.0160 O   0  0  0  0  0  0  0  0  0  0  0  0
   -3.6760    1.5740    0.0200 C   0  0  0  0  0  2  0  0  0  0  0  0
   -4.7420    0.5090    0.0120 C   0  0  0  0  0  0  0  0  0  0  0  0
   -4.4180   -0.6700    0.0050 O   0  0  0  0  0  0  0  0  0  0  0  0
   -6.0590    0.8580    0.0200 N   0  0  0  0  0  0  0  0  0  0  0  0
   -6.3170    1.8560    0.0280 H   0  0  0  0  0  0  0  0  0  0  0  0
   -7.0970   -0.1600    0.0330 C   0  0  0  0  0  2  0  0  0  0  0  0
   -8.5050    0.4510    0.0670 C   0  0  2  0  0  3  0  0  0  0  0  0
   -8.6880    1.2910    1.1930 O   0  0  0  0  0  0  0  0  0  0  0  0
   -9.9870    1.0170    1.6880 C   0  0  0  0  0  2  0  0  0  0  0  0
  -10.7110    0.1780    0.6490 C   0  0  0  0  0  2  0  0  0  0  0  0
   -9.5670   -0.6410    0.1520 C   0  0  0  0  0  2  0  0  0  0  0  0
  1  2  1  0  0  0  0
  2  6  1  0  0  0  0
  3  1  1  0  0  0  0
  4  2  1  0  0  0  0
  4  5  1  0  0  0  0
  7  6  1  0  0  0  0
  7  8  1  0  0  0  0
  9  8  1  0  0  0  0
  9 11  1  0  0  0  0
 10  9  2  0  0  0  0
 11 12  1  0  0  0  0
 11 13  1  0  0  0  0
 14 13  1  1  0  0  0
 14 18  1  0  0  0  0
 14 15  1  0  0  0  0
 15 16  1  0  0  0  0
 17 16  1  0  0  0  0
 18 17  1  0  0  0  0
M  END
>  <REMARK>
  7 active torsions:
  status: ('A' for Active; 'I' for Inactive)
    1  A    between atoms: C_2  and  O_3 
    2  A    between atoms: C_2  and  C_4 
    3  A    between atoms: C_4  and  O_5 
    4  A    between atoms: O_5  and  C_6 
    5  A    between atoms: C_6  and  C_7 
       I    between atoms: C_7  and  N_9 
    6  A    between atoms: N_9  and  C_10 
    7  A    between atoms: C_10  and  C_11 

>  <TORSDO>
F 7

$$$$
C:\Users\siddh\.mgltools\PyRx\Ligands\ZINC000004770450_uff_E=306.67.pdbqt
 OpenBabel04182118313D

 21 21  0  0  0  0  0  0  0  0999 V2000
    2.4930   -0.4200   -0.0180 N   0  0  0  0  0  0  0  0  0  0  0  0
    3.5220   -1.3100   -0.0230 C   0  0  0  0  0  0  0  0  0  0  0  0
    3.3030   -2.5140   -0.0230 O   0  0  0  0  0  0  0  0  0  0  0  0
    2.7090    0.5880   -0.0170 H   0  0  0  0  0  0  0  0  0  0  0  0
    1.1280   -0.8300   -0.0110 C   0  0  0  0  0  0  0  0  0  0  0  0
    0.0220   -0.0250   -0.0000 C   0  0  0  0  0  0  0  0  0  0  0  0
   -1.0600   -0.8190    0.0030 N   0  0  0  0  0  0  0  0  0  0  0  0
   -0.6070   -2.0440   -0.0050 O   0  0  0  0  0  0  0  0  0  0  0  0
   -2.0370   -0.5250    0.0110 H   0  0  0  0  0  0  0  0  0  0  0  0
    0.6980   -2.1040   -0.0140 N   0  0  0  0  0  0  0  0  0  0  0  0
    1.2730   -2.9460   -0.0220 H   0  0  0  0  0  0  0  0  0  0  0  0
   -0.0210    1.3860    0.0070 N   0  0  0  0  0  0  0  0  0  0  0  0
    0.8460    1.9400    0.0050 H   0  0  0  0  0  0  0  0  0  0  0  0
   -0.9290    1.8710    0.0160 H   0  0  0  0  0  0  0  0  0  0  0  0
    4.9430   -0.8060   -0.0290 C   0  0  0  0  0  2  0  0  0  0  0  0
    5.9570   -1.9580   -0.0330 C   0  0  0  0  0  2  0  0  0  0  0  0
    7.3790   -1.4810   -0.0380 C   0  0  0  0  0  3  0  0  0  0  0  0
    7.6710   -0.1650   -0.0390 O   0  0  0  0  0  0  0  0  0  0  0  0
    8.5640    0.1170   -0.0430 H   0  0  0  0  0  0  0  0  0  0  0  0
    8.3780   -2.3820   -0.0420 O   0  0  0  0  0  0  0  0  0  0  0  0
    8.1830   -3.2990   -0.0410 H   0  0  0  0  0  0  0  0  0  0  0  0
  1  4  1  0  0  0  0
  1  5  1  0  0  0  0
  2  3  2  0  0  0  0
  2  1  1  0  0  0  0
  5  6  2  0  0  0  0
  6  7  1  0  0  0  0
  6 12  1  0  0  0  0
  7  9  1  0  0  0  0
  8  7  1  0  0  0  0
 10  5  1  0  0  0  0
 10  8  1  0  0  0  0
 11 10  1  0  0  0  0
 12 14  1  0  0  0  0
 13 12  1  0  0  0  0
 15  2  1  0  0  0  0
 16 15  1  0  0  0  0
 17 16  1  0  0  0  0
 18 17  1  0  0  0  0
 19 18  1  0  0  0  0
 20 21  1  0  0  0  0
 20 17  1  0  0  0  0
M  END
>  <REMARK>
  7 active torsions:
  status: ('A' for Active; 'I' for Inactive)
    1  A    between atoms: N_1  and  C_2 
    2  A    between atoms: C_8  and  N_9 
       I    between atoms: N_9  and  C_10 
    3  A    between atoms: C_10  and  C_12 
    4  A    between atoms: C_12  and  C_13 
    5  A    between atoms: C_13  and  C_14 
    6  A    between atoms: C_14  and  O_15 
    7  A    between atoms: C_14  and  O_16 

>  <TORSDO>
F 7

$$$$
C:\Users\siddh\.mgltools\PyRx\Ligands\ZINC000004743910_uff_E=505.87.pdbqt
 OpenBabel04182118313D

 15 14  0  0  0  0  0  0  0  0999 V2000
   -1.4020   -2.3990   -1.4590 N   0  0  0  0  0  0  0  0  0  0  0  0
   -1.6410   -2.0390   -2.3840 H   0  0  0  0  0  0  0  0  0  0  0  0
   -0.0050   -2.1080   -1.1620 C   0  0  0  0  0  2  0  0  0  0  0  0
    0.1490   -0.6680   -1.1130 N   0  0  0  0  0  0  0  0  0  0  0  0
    0.0170    0.0310    0.0490 C   0  0  0  0  0  0  0  0  0  0  0  0
    0.0400    1.5290    0.0240 C   0  0  0  0  0  1  0  0  0  0  0  0
   -0.1560   -0.5490    1.1110 O   0  0  0  0  0  0  0  0  0  0  0  0
    0.2140   -0.1520   -2.0020 H   0  0  0  0  0  0  0  0  0  0  0  0
   -1.7560   -4.1340   -1.3810 S   0  0  0  0  0  0  0  0  0  0  0  0
   -0.9120   -4.7740   -2.4940 O   0  0  0  0  0  0  0  0  0  0  0  0
   -1.0950   -4.6520   -0.0940 O   0  0  0  0  0  0  0  0  0  0  0  0
   -3.5220   -4.5330   -1.4850 C   0  0  0  0  0  0  0  0  0  0  0  0
   -4.0430   -3.9890   -2.6440 F   0  0  0  0  0  0  0  0  0  0  0  0
   -3.6960   -5.9020   -1.4980 F   0  0  0  0  0  0  0  0  0  0  0  0
   -4.1760   -3.9940   -0.3930 F   0  0  0  0  0  0  0  0  0  0  0  0
  1  9  1  0  0  0  0
  1  3  1  0  0  0  0
  2  1  1  0  0  0  0
  3  4  1  0  0  0  0
  4  5  1  0  0  0  0
  5  7  2  0  0  0  0
  6  5  1  0  0  0  0
  8  4  1  0  0  0  0
  9 11  2  0  0  0  0
 10  9  2  0  0  0  0
 12  9  1  0  0  0  0
 12 15  1  0  0  0  0
 13 12  1  0  0  0  0
 14 12  1  0  0  0  0
M  END
>  <REMARK>
  4 active torsions:
  status: ('A' for Active; 'I' for Inactive)
       I    between atoms: C_2  and  N_4 
    1  A    between atoms: N_4  and  C_5 
    2  A    between atoms: C_5  and  N_6 
    3  A    between atoms: N_6  and  S_7 
    4  A    between atoms: S_7  and  C_10 

>  <TORSDO>
F 4

$$$$
C:\Users\siddh\.mgltools\PyRx\Ligands\ZINC000004705420_uff_E=585.32.pdbqt
 OpenBabel04182118313D

 21 23  0  0  1  0  0  0  0  0999 V2000
    0.0430   -0.1280    0.0080 O   0  0  0  0  0  0  0  0  0  0  0  0
   -0.0150    1.2180    0.0130 C   0  0  0  0  0  3  0  0  0  0  0  0
    0.1530   -1.0580   -0.0010 H   0  0  0  0  0  0  0  0  0  0  0  0
    1.1250    1.9330   -0.0020 O   0  0  0  0  0  0  0  0  0  0  0  0
    1.0920    2.8690    0.0010 H   0  0  0  0  0  0  0  0  0  0  0  0
   -1.3390    1.9280    0.0340 C   0  0  0  0  0  2  0  0  0  0  0  0
   -2.4540    0.9660    0.0480 N   0  0  0  0  0  0  0  0  0  0  0  0
   -2.9890    0.5040    1.2470 C   0  0  0  0  0  0  0  0  0  0  0  0
   -4.0440   -0.3940    1.1840 C   0  0  0  0  0  0  0  0  0  0  0  0
   -2.5530    0.8790    2.3240 O   0  0  0  0  0  0  0  0  0  0  0  0
   -4.5140   -0.8150   -0.0180 C   0  0  0  0  0  0  0  0  0  0  0  0
   -4.7610   -0.9950    2.1390 N   0  0  0  0  0  0  0  0  0  0  0  0
   -3.9970   -0.3860   -1.1890 N   0  0  0  0  0  0  0  0  0  0  0  0
   -5.5220   -1.7040    0.1540 N   0  0  0  0  0  0  0  0  0  0  0  0
   -2.9650    0.5140   -1.1560 C   0  0  0  0  0  2  0  0  0  0  0  0
   -4.3660   -0.7240   -2.0770 H   0  0  0  0  0  0  0  0  0  0  0  0
   -5.6390   -1.7580    1.5060 C   0  0  1  0  0  3  0  0  0  0  0  0
   -6.0580   -2.2060   -0.5540 H   0  0  0  0  0  0  0  0  0  0  0  0
   -6.4800   -2.5900    2.3900 C   0  0  0  0  0  2  0  0  0  0  0  0
   -6.1890   -1.8640    3.7350 C   0  0  0  0  0  2  0  0  0  0  0  0
   -4.8230   -1.1380    3.5750 C   0  0  0  0  0  2  0  0  0  0  0  0
  1  2  1  0  0  0  0
  2  6  1  0  0  0  0
  3  1  1  0  0  0  0
  4  5  1  0  0  0  0
  4  2  1  0  0  0  0
  6  7  1  0  0  0  0
  7  8  1  0  0  0  0
  8 10  2  0  0  0  0
  9  8  1  0  0  0  0
  9 12  1  0  0  0  0
 11 14  1  0  0  0  0
 11  9  2  0  0  0  0
 12 21  1  0  0  0  0
 13 15  1  0  0  0  0
 13 11  1  0  0  0  0
 14 17  1  0  0  0  0
 15  7  1  0  0  0  0
 16 13  1  0  0  0  0
 17 12  1  0  0  0  0
 17 19  1  1  0  0  0
 18 14  1  0  0  0  0
 19 20  1  0  0  0  0
 21 20  1  0  0  0  0
M  END
>  <REMARK>
  3 active torsions:
  status: ('A' for Active; 'I' for Inactive)
    1  A    between atoms: C_2  and  O_3 
    2  A    between atoms: C_2  and  C_4 
    3  A    between atoms: C_4  and  N_5 

>  <TORSDO>
F 3

$$$$
C:\Users\siddh\.mgltools\PyRx\Ligands\ZINC000004704318_uff_E=113.13.pdbqt
 OpenBabel04182118313D

 17 17  0  0  0  0  0  0  0  0999 V2000
    1.1280    1.8740    0.0090 N   0  0  0  0  0  0  0  0  0  0  0  0
    2.4210    1.1970   -0.0110 C   0  0  0  0  0  2  0  0  0  0  0  0
    3.2130    1.6910   -1.2250 C   0  0  0  0  0  2  0  0  0  0  0  0
    3.2260    3.1540   -1.2120 N   0  0  0  0  0  0  0  0  0  0  0  0
    4.4130    3.8470   -1.2040 C   0  0  0  0  0  0  0  0  0  0  0  0
    5.4750    3.2420   -1.2140 O   0  0  0  0  0  0  0  0  0  0  0  0
    1.9230    3.8200   -1.1970 C   0  0  0  0  0  2  0  0  0  0  0  0
    1.1330    3.3290    0.0180 C   0  0  0  0  0  2  0  0  0  0  0  0
    4.4320    5.3600   -1.1930 C   0  0  0  0  0  2  0  0  0  0  0  0
    5.8480    5.9440   -1.2100 C   0  0  0  0  0  2  0  0  0  0  0  0
    5.8350    7.4470   -1.1990 C   0  0  0  0  0  3  0  0  0  0  0  0
    4.6740    8.1320   -1.1780 O   0  0  0  0  0  0  0  0  0  0  0  0
    4.6830    9.0690   -1.1720 H   0  0  0  0  0  0  0  0  0  0  0  0
    7.0010    8.1180   -1.2110 O   0  0  0  0  0  0  0  0  0  0  0  0
    7.8120    7.6490   -1.2250 H   0  0  0  0  0  0  0  0  0  0  0  0
   -0.0510    1.1890   -0.0060 C   0  0  0  0  0  3  0  0  0  0  0  0
   -0.0710   -0.0320   -0.0210 O   0  0  0  0  0  0  0  0  0  0  0  0
  1  8  1  0  0  0  0
  2  1  1  0  0  0  0
  3  4  1  0  0  0  0
  3  2  1  0  0  0  0
  4  5  1  0  0  0  0
  4  7  1  0  0  0  0
  5  9  1  0  0  0  0
  6  5  2  0  0  0  0
  7  8  1  0  0  0  0
 10 11  1  0  0  0  0
 10  9  1  0  0  0  0
 11 12  1  0  0  0  0
 12 13  1  0  0  0  0
 14 11  1  0  0  0  0
 15 14  1  0  0  0  0
 16  1  1  0  0  0  0
 17 16  2  0  0  0  0
M  END
>  <REMARK>
  6 active torsions:
  status: ('A' for Active; 'I' for Inactive)
    1  A    between atoms: C_2  and  N_3 
       I    between atoms: N_6  and  C_7 
    2  A    between atoms: C_7  and  C_9 
    3  A    between atoms: C_9  and  C_10 
    4  A    between atoms: C_10  and  C_11 
    5  A    between atoms: C_11  and  O_12 
    6  A    between atoms: C_11  and  O_13 

>  <TORSDO>
F 6

$$$$
C:\Users\siddh\.mgltools\PyRx\Ligands\ZINC000004671366_uff_E=518.04.pdbqt
 OpenBabel04182118313D

 18 20  0  0  1  0  0  0  0  0999 V2000
    0.0230   -0.1110    0.0010 O   0  0  0  0  0  0  0  0  0  0  0  0
   -0.0090    1.2370    0.0090 C   0  0  0  0  0  3  0  0  0  0  0  0
    0.0830   -1.0460   -0.0140 H   0  0  0  0  0  0  0  0  0  0  0  0
    1.1450    1.9280    0.0050 O   0  0  0  0  0  0  0  0  0  0  0  0
    1.1300    2.8650    0.0100 H   0  0  0  0  0  0  0  0  0  0  0  0
   -1.3170    1.9740    0.0220 C   0  0  0  0  0  2  0  0  0  0  0  0
   -2.4280    1.0400    0.0200 N   0  0  0  0  0  0  0  0  0  0  0  0
   -2.9780    0.4970    1.1110 C   0  0  0  0  0  0  0  0  0  0  0  0
   -4.0660   -0.4850    0.7840 C   0  0  1  0  0  3  0  0  0  0  0  0
   -2.6110    0.7580    2.2470 O   0  0  0  0  0  0  0  0  0  0  0  0
   -4.0720   -0.4670   -0.7600 C   0  0  1  0  0  3  0  0  0  0  0  0
   -3.6420   -1.9370    1.0380 C   0  0  2  0  0  3  0  0  0  0  0  0
   -2.9880    0.5200   -1.0760 C   0  0  0  0  0  0  0  0  0  0  0  0
   -3.6450   -1.9090   -1.0540 C   0  0  1  0  0  3  0  0  0  0  0  0
   -2.6300    0.8020   -2.2100 O   0  0  0  0  0  0  0  0  0  0  0  0
   -2.7460   -2.2180   -0.0130 O   0  0  0  0  0  0  0  0  0  0  0  0
   -4.8290   -2.8370   -0.7820 C   0  0  0  0  0  2  0  0  0  0  0  0
   -4.8290   -2.8570    0.7410 C   0  0  0  0  0  2  0  0  0  0  0  0
  1  2  1  0  0  0  0
  2  6  1  0  0  0  0
  3  1  1  0  0  0  0
  4  2  1  0  0  0  0
  4  5  1  0  0  0  0
  7  6  1  0  0  0  0
  7  8  1  0  0  0  0
  8 10  2  0  0  0  0
  9 12  1  0  0  0  0
  9  8  1  6  0  0  0
 11 13  1  6  0  0  0
 11  9  1  0  0  0  0
 12 18  1  6  0  0  0
 13  7  1  0  0  0  0
 14 17  1  1  0  0  0
 14 11  1  0  0  0  0
 14 16  1  0  0  0  0
 15 13  2  0  0  0  0
 16 12  1  0  0  0  0
 17 18  1  0  0  0  0
M  END
>  <REMARK>
  3 active torsions:
  status: ('A' for Active; 'I' for Inactive)
    1  A    between atoms: C_2  and  O_3 
    2  A    between atoms: C_2  and  C_4 
    3  A    between atoms: C_4  and  N_5 

>  <TORSDO>
F 3

$$$$
C:\Users\siddh\.mgltools\PyRx\Ligands\ZINC000004671365_uff_E=935.16.pdbqt
 OpenBabel04182118313D

 18 20  0  0  1  0  0  0  0  0999 V2000
    0.0680   -0.0870    0.0050 O   0  0  0  0  0  0  0  0  0  0  0  0
    0.0310    1.2610    0.0230 C   0  0  0  0  0  3  0  0  0  0  0  0
    0.1360   -1.0210   -0.0300 H   0  0  0  0  0  0  0  0  0  0  0  0
    1.1840    1.9560    0.0270 O   0  0  0  0  0  0  0  0  0  0  0  0
    1.1660    2.8930    0.0400 H   0  0  0  0  0  0  0  0  0  0  0  0
   -1.2790    1.9950    0.0320 C   0  0  0  0  0  2  0  0  0  0  0  0
   -2.3950    1.0670    0.0070 N   0  0  0  0  0  0  0  0  0  0  0  0
   -2.9800    0.4990    1.0810 C   0  0  0  0  0  0  0  0  0  0  0  0
   -4.2130   -0.2100    0.6430 C   0  0  1  0  0  3  0  0  0  0  0  0
   -2.6220    0.6730    2.2360 O   0  0  0  0  0  0  0  0  0  0  0  0
   -3.7810   -0.6540   -0.7520 C   0  0  2  0  0  3  0  0  0  0  0  0
   -5.4370   -1.0930    0.8650 C   0  0  1  0  0  3  0  0  0  0  0  0
   -2.9580    0.5520   -1.1100 C   0  0  0  0  0  0  0  0  0  0  0  0
   -5.1020   -1.3170   -1.2050 C   0  0  2  0  0  3  0  0  0  0  0  0
   -2.5940    0.8350   -2.2410 O   0  0  0  0  0  0  0  0  0  0  0  0
   -6.1180   -0.8390   -0.3520 O   0  0  0  0  0  0  0  0  0  0  0  0
   -5.0520   -2.7770   -0.7250 C   0  0  0  0  0  2  0  0  0  0  0  0
   -5.1220   -2.5920    0.7970 C   0  0  0  0  0  2  0  0  0  0  0  0
  1  2  1  0  0  0  0
  2  4  1  0  0  0  0
  2  6  1  0  0  0  0
  3  1  1  0  0  0  0
  4  5  1  0  0  0  0
  7  6  1  0  0  0  0
  7  8  1  0  0  0  0
  8 10  2  0  0  0  0
  9 12  1  0  0  0  0
  9  8  1  1  0  0  0
 11 13  1  6  0  0  0
 11  9  1  0  0  0  0
 12 18  1  6  0  0  0
 13  7  1  0  0  0  0
 14 11  1  0  0  0  0
 14 17  1  1  0  0  0
 14 16  1  0  0  0  0
 15 13  2  0  0  0  0
 16 12  1  0  0  0  0
 17 18  1  0  0  0  0
M  END
>  <REMARK>
  3 active torsions:
  status: ('A' for Active; 'I' for Inactive)
    1  A    between atoms: C_2  and  O_3 
    2  A    between atoms: C_2  and  C_4 
    3  A    between atoms: C_4  and  N_5 

>  <TORSDO>
F 3

$$$$
C:\Users\siddh\.mgltools\PyRx\Ligands\ZINC000004637235_uff_E=104.66.pdbqt
 OpenBabel04182118313D

 20 20  0  0  1  0  0  0  0  0999 V2000
    2.5200   -0.0100    1.1460 C   0  0  1  0  0  3  0  0  0  0  0  0
    2.7800    0.6630   -0.0050 N   0  0  0  0  0  0  0  0  0  0  0  0
    2.0250    0.8120   -0.6740 H   0  0  0  0  0  0  0  0  0  0  0  0
    4.0160    1.1410   -0.2880 C   0  0  0  0  0  0  0  0  0  0  0  0
    5.0610    0.9270    0.6130 C   0  0  0  0  0  3  0  0  0  0  0  0
    4.7950    0.2210    1.7870 C   0  0  0  0  0  0  0  0  0  0  0  0
    5.6870    0.0200    2.5930 O   0  0  0  0  0  0  0  0  0  0  0  0
    3.5240   -0.2360    2.0380 N   0  0  0  0  0  0  0  0  0  0  0  0
    3.3230   -0.7520    2.9250 H   0  0  0  0  0  0  0  0  0  0  0  0
    0.8430   -0.5650    1.5290 S   0  0  0  0  0  0  0  0  0  0  0  0
   -0.0320    0.0430    0.0320 C   0  0  2  0  0  3  0  0  0  0  0  0
   -0.1560    1.5730    0.0150 C   0  0  0  0  0  1  0  0  0  0  0  0
   -1.4080   -0.5600    0.0150 C   0  0  0  0  0  3  0  0  0  0  0  0
   -1.7770   -1.3780   -0.9900 O   0  0  0  0  0  0  0  0  0  0  0  0
   -2.6360   -1.7520   -0.9980 H   0  0  0  0  0  0  0  0  0  0  0  0
   -2.2850   -0.2790    1.0000 O   0  0  0  0  0  0  0  0  0  0  0  0
   -2.0340    0.2900    1.7010 H   0  0  0  0  0  0  0  0  0  0  0  0
    4.2260    1.8680   -1.4810 N   0  0  0  0  0  0  0  0  0  0  0  0
    3.4410    2.0340   -2.1280 H   0  0  0  0  0  0  0  0  0  0  0  0
    5.1520    2.2630   -1.7030 H   0  0  0  0  0  0  0  0  0  0  0  0
  1 10  1  1  0  0  0
  1  8  1  0  0  0  0
  2  1  1  0  0  0  0
  3  2  1  0  0  0  0
  4  2  1  0  0  0  0
  4  5  2  0  0  0  0
  5  6  1  0  0  0  0
  6  8  1  0  0  0  0
  6  7  2  0  0  0  0
  8  9  1  0  0  0  0
 11 12  1  1  0  0  0
 11 10  1  0  0  0  0
 13 11  1  0  0  0  0
 13 16  1  0  0  0  0
 14 13  1  0  0  0  0
 15 14  1  0  0  0  0
 16 17  1  0  0  0  0
 18  4  1  0  0  0  0
 19 18  1  0  0  0  0
 20 18  1  0  0  0  0
M  END
>  <REMARK>
  6 active torsions:
  status: ('A' for Active; 'I' for Inactive)
    1  A    between atoms: C_2  and  S_3 
    2  A    between atoms: C_2  and  C_13 
    3  A    between atoms: S_3  and  C_4 
    4  A    between atoms: C_7  and  N_8 
    5  A    between atoms: C_13  and  O_14 
    6  A    between atoms: C_13  and  O_15 

>  <TORSDO>
F 6

$$$$
C:\Users\siddh\.mgltools\PyRx\Ligands\ZINC000004629796_uff_E=396.96.pdbqt
 OpenBabel04182118313D

 18 20  0  0  1  0  0  0  0  0999 V2000
   -0.0180    1.4490    0.0090 C   0  0  0  0  0  1  0  0  0  0  0  0
   -0.0100   -0.0120    0.0000 N   0  0  0  0  0  0  0  0  0  0  0  0
   -1.0770   -0.8460    0.0020 C   0  0  0  0  0  0  0  0  0  0  0  0
   -2.4410   -0.5370    0.0100 C   0  0  0  0  0  3  0  0  0  0  0  0
   -3.3580   -1.6070    0.0090 C   0  0  0  0  0  3  0  0  0  0  0  0
   -2.8990   -2.9440   -0.0000 C   0  0  0  0  0  3  0  0  0  0  0  0
   -1.5190   -3.2270   -0.0080 C   0  0  0  0  0  3  0  0  0  0  0  0
   -0.6320   -2.1480   -0.0070 C   0  0  0  0  0  0  0  0  0  0  0  0
    0.7190   -2.1380   -0.0130 N   0  0  0  0  0  0  0  0  0  0  0  0
    1.0670   -0.8370   -0.0090 C   0  0  1  0  0  3  0  0  0  0  0  0
    2.3680   -0.4550   -0.0140 N   0  0  0  0  0  0  0  0  0  0  0  0
    2.6150    0.5340   -0.0120 H   0  0  0  0  0  0  0  0  0  0  0  0
    3.3260   -1.3910   -0.0210 N   0  0  0  0  0  0  0  0  0  0  0  0
    3.0170   -2.7370   -0.0240 C   0  0  0  0  0  0  0  0  0  0  0  0
    3.9080   -3.5680   -0.0290 O   0  0  0  0  0  0  0  0  0  0  0  0
    1.6670   -3.1270   -0.0210 C   0  0  0  0  0  0  0  0  0  0  0  0
    1.3510   -4.3050   -0.0230 O   0  0  0  0  0  0  0  0  0  0  0  0
    4.2710   -1.1140   -0.0250 H   0  0  0  0  0  0  0  0  0  0  0  0
  2  3  1  0  0  0  0
  2  1  1  0  0  0  0
  3  4  1  0  0  0  0
  5  4  2  0  0  0  0
  6  5  1  0  0  0  0
  7  8  1  0  0  0  0
  7  6  2  0  0  0  0
  8  3  2  0  0  0  0
  9 10  1  0  0  0  0
  9  8  1  0  0  0  0
 10 11  1  6  0  0  0
 10  2  1  0  0  0  0
 11 12  1  0  0  0  0
 13 11  1  0  0  0  0
 14 13  1  0  0  0  0
 14 16  1  0  0  0  0
 15 14  2  0  0  0  0
 16  9  1  0  0  0  0
 17 16  2  0  0  0  0
 18 13  1  0  0  0  0
M  END
>  <REMARK>
  0 active torsions:
  status: ('A' for Active; 'I' for Inactive)

>  <TORSDO>
F 0

$$$$
C:\Users\siddh\.mgltools\PyRx\Ligands\ZINC000004617021_uff_E=164.45.pdbqt
 OpenBabel04182118313D

 20 20  0  0  0  0  0  0  0  0999 V2000
    0.1030   -0.1460   -0.0020 O   0  0  0  0  0  0  0  0  0  0  0  0
    0.0650    1.2010    0.0040 C   0  0  0  0  0  3  0  0  0  0  0  0
    0.1760   -1.0800   -0.0140 H   0  0  0  0  0  0  0  0  0  0  0  0
    1.2160    1.8980   -0.0010 O   0  0  0  0  0  0  0  0  0  0  0  0
    1.1970    2.8350    0.0040 H   0  0  0  0  0  0  0  0  0  0  0  0
   -1.2430    1.9400    0.0180 C   0  0  0  0  0  2  0  0  0  0  0  0
   -2.4580    1.0050    0.0270 C   0  0  0  0  0  2  0  0  0  0  0  0
   -3.7620    1.7640    0.0540 C   0  0  0  0  0  0  0  0  0  0  0  0
   -3.7690    2.9870    0.0580 O   0  0  0  0  0  0  0  0  0  0  0  0
   -4.9290    1.0730    0.0690 N   0  0  0  0  0  0  0  0  0  0  0  0
   -4.8990    0.0420    0.0600 H   0  0  0  0  0  0  0  0  0  0  0  0
   -6.2090    1.7560    0.0830 C   0  0  0  0  0  2  0  0  0  0  0  0
   -7.3360    0.7320    0.0590 C   0  0  0  0  0  2  0  0  0  0  0  0
   -8.7170    1.3960   -0.0090 C   0  0  0  0  0  2  0  0  0  0  0  0
   -9.8200    0.4100    0.0300 N   0  0  0  0  0  0  0  0  0  0  0  0
  -11.1110    1.1010   -0.1580 C   0  0  0  0  0  2  0  0  0  0  0  0
  -12.2540    0.0800   -0.1040 C   0  0  0  0  0  2  0  0  0  0  0  0
  -12.0920   -0.9030   -1.1090 O   0  0  0  0  0  0  0  0  0  0  0  0
  -10.8850   -1.6040   -0.8890 C   0  0  0  0  0  2  0  0  0  0  0  0
   -9.6890   -0.6570   -0.9850 C   0  0  0  0  0  2  0  0  0  0  0  0
  1  2  1  0  0  0  0
  2  6  1  0  0  0  0
  3  1  1  0  0  0  0
  4  2  1  0  0  0  0
  4  5  1  0  0  0  0
  6  7  1  0  0  0  0
  7  8  1  0  0  0  0
  8  9  2  0  0  0  0
  8 10  1  0  0  0  0
 10 12  1  0  0  0  0
 11 10  1  0  0  0  0
 13 12  1  0  0  0  0
 14 15  1  0  0  0  0
 14 13  1  0  0  0  0
 16 17  1  0  0  0  0
 16 15  1  0  0  0  0
 18 19  1  0  0  0  0
 18 17  1  0  0  0  0
 20 19  1  0  0  0  0
 20 15  1  0  0  0  0
M  END
>  <REMARK>
  8 active torsions:
  status: ('A' for Active; 'I' for Inactive)
    1  A    between atoms: C_2  and  O_3 
    2  A    between atoms: C_2  and  C_4 
    3  A    between atoms: C_4  and  C_5 
    4  A    between atoms: C_5  and  C_6 
       I    between atoms: C_6  and  N_8 
    5  A    between atoms: N_8  and  C_9 
    6  A    between atoms: C_9  and  C_10 
    7  A    between atoms: C_10  and  C_11 
    8  A    between atoms: C_11  and  N_12 

>  <TORSDO>
F 8

$$$$
C:\Users\siddh\.mgltools\PyRx\Ligands\ZINC000004611494_uff_E=130.13.pdbqt
 OpenBabel04182118313D

 20 20  0  0  1  0  0  0  0  0999 V2000
   -0.0420   -0.1670    0.0650 O   0  0  0  0  0  0  0  0  0  0  0  0
   -0.0530    1.1730   -0.0760 C   0  0  0  0  0  3  0  0  0  0  0  0
   -0.0220   -1.0660    0.3280 H   0  0  0  0  0  0  0  0  0  0  0  0
    1.1070    1.8230   -0.3020 O   0  0  0  0  0  0  0  0  0  0  0  0
    1.1100    2.7550   -0.4010 H   0  0  0  0  0  0  0  0  0  0  0  0
   -1.3550    1.9330    0.0480 C   0  0  1  0  0  3  0  0  0  0  0  0
   -1.9730    1.7030    1.4370 C   0  0  0  0  0  2  0  0  0  0  0  0
   -1.1110    2.1590    2.4440 O   0  0  0  0  0  0  0  0  0  0  0  0
   -1.5990    2.0330    3.2980 H   0  0  0  0  0  0  0  0  0  0  0  0
   -1.1590    3.3600   -0.1880 N   0  0  0  0  0  0  0  0  0  0  0  0
   -0.9120    3.8590   -1.4390 C   0  0  0  0  0  0  0  0  0  0  0  0
   -0.8800    3.0950   -2.3940 O   0  0  0  0  0  0  0  0  0  0  0  0
   -1.2610    3.9980    0.6090 H   0  0  0  0  0  0  0  0  0  0  0  0
   -0.7080    5.3280   -1.6810 C   0  0  0  0  0  0  0  0  0  0  0  0
   -0.6100    5.8040   -3.0030 C   0  0  0  0  0  3  0  0  0  0  0  0
   -0.4130    7.1660   -3.2420 C   0  0  0  0  0  2  0  0  0  0  0  0
   -0.3090    8.0350   -2.2040 N   0  0  0  0  0  0  0  0  0  0  0  0
   -0.3960    7.6130   -0.9170 C   0  0  0  0  0  3  0  0  0  0  0  0
   -0.1630    9.0260   -2.3960 H   0  0  0  0  0  0  0  0  0  0  0  0
   -0.5980    6.2620   -0.6290 C   0  0  0  0  0  3  0  0  0  0  0  0
  1  3  1  0  0  0  0
  2  6  1  0  0  0  0
  2  1  1  0  0  0  0
  4  2  1  0  0  0  0
  5  4  1  0  0  0  0
  6  7  1  1  0  0  0
  7  8  1  0  0  0  0
  8  9  1  0  0  0  0
 10  6  1  0  0  0  0
 10 13  1  0  0  0  0
 11 10  1  0  0  0  0
 12 11  2  0  0  0  0
 14 11  1  0  0  0  0
 14 20  1  0  0  0  0
 15 14  2  0  0  0  0
 16 15  1  0  0  0  0
 16 17  1  0  0  0  0
 17 18  1  0  0  0  0
 18 20  2  0  0  0  0
 19 17  1  0  0  0  0
M  END
>  <REMARK>
  6 active torsions:
  status: ('A' for Active; 'I' for Inactive)
    1  A    between atoms: C_2  and  O_3 
    2  A    between atoms: C_2  and  C_4 
    3  A    between atoms: C_4  and  C_5 
    4  A    between atoms: C_4  and  N_7 
    5  A    between atoms: C_5  and  O_6 
       I    between atoms: N_7  and  C_8 
    6  A    between atoms: C_8  and  C_10 

>  <TORSDO>
F 6

$$$$
C:\Users\siddh\.mgltools\PyRx\Ligands\ZINC000004575280_uff_E=212.20.pdbqt
 OpenBabel04182118313D

 17 17  0  0  1  0  0  0  0  0999 V2000
   -1.3660   -0.4810    0.0420 N   0  0  0  0  0  0  0  0  0  0  0  0
   -2.2960   -0.2460    0.9820 C   0  0  0  0  0  0  0  0  0  0  0  0
   -2.1100    0.4340    1.9790 O   0  0  0  0  0  0  0  0  0  0  0  0
   -3.4650   -0.8510    0.7110 N   0  0  0  0  0  0  0  0  0  0  0  0
   -3.3650   -1.5850   -0.5410 C   0  0  0  0  0  0  0  0  0  0  0  0
   -3.5680   -3.0850   -0.3110 C   0  0  0  0  0  1  0  0  0  0  0  0
   -4.3430   -1.0260   -1.5750 C   0  0  0  0  0  1  0  0  0  0  0  0
   -1.9280   -1.2660   -0.8970 C   0  0  0  0  0  0  0  0  0  0  0  0
   -1.3440   -1.6630   -1.8950 O   0  0  0  0  0  0  0  0  0  0  0  0
   -4.3030   -0.8000    1.3100 H   0  0  0  0  0  0  0  0  0  0  0  0
    0.0090    0.0110    0.0310 C   0  0  1  0  0  3  0  0  0  0  0  0
    0.0220    1.5430   -0.0080 C   0  0  0  0  0  1  0  0  0  0  0  0
    0.7830   -0.5060    1.2220 C   0  0  0  0  0  3  0  0  0  0  0  0
    0.1840   -1.2600    2.1650 O   0  0  0  0  0  0  0  0  0  0  0  0
    0.6770   -1.5730    2.8980 H   0  0  0  0  0  0  0  0  0  0  0  0
    2.0960   -0.2290    1.3360 O   0  0  0  0  0  0  0  0  0  0  0  0
    2.5220    0.2940    0.6870 H   0  0  0  0  0  0  0  0  0  0  0  0
  1  2  1  0  0  0  0
  2  3  2  0  0  0  0
  4  2  1  0  0  0  0
  4 10  1  0  0  0  0
  5  6  1  0  0  0  0
  5  4  1  0  0  0  0
  7  5  1  0  0  0  0
  8  5  1  0  0  0  0
  8  1  1  0  0  0  0
  9  8  2  0  0  0  0
 11 12  1  1  0  0  0
 11  1  1  0  0  0  0
 11 13  1  0  0  0  0
 13 16  1  0  0  0  0
 13 14  1  0  0  0  0
 14 15  1  0  0  0  0
 17 16  1  0  0  0  0
M  END
>  <REMARK>
  4 active torsions:
  status: ('A' for Active; 'I' for Inactive)
    1  A    between atoms: C_2  and  C_3 
    2  A    between atoms: C_2  and  N_6 
    3  A    between atoms: C_3  and  O_4 
    4  A    between atoms: C_3  and  O_5 

>  <TORSDO>
F 4

$$$$
C:\Users\siddh\.mgltools\PyRx\Ligands\ZINC000004554515_uff_E=1014.90.pdbqt
 OpenBabel04182118313D

 19 20  0  0  1  0  0  0  0  0999 V2000
   -1.2080   -0.7420   -0.0380 C   0  0  0  0  0  0  0  0  0  0  0  0
   -1.1690   -2.1250   -0.0340 C   0  0  0  0  0  0  0  0  0  0  0  0
   -2.4050   -2.8190    0.1610 N   0  0  0  0  0  0  0  0  0  0  0  0
   -2.7970   -3.9980    0.5560 C   0  0  0  0  0  0  0  0  0  0  0  0
   -2.1290   -4.9580    0.9080 O   0  0  0  0  0  0  0  0  0  0  0  0
   -4.2570   -3.7470    0.5250 C   0  0  1  0  0  3  0  0  0  0  0  0
   -3.7260   -2.3170   -0.0260 C   0  0  1  0  0  3  0  0  0  0  0  0
   -3.9120   -0.9050    1.0560 S   0  0  0  0  0  0  0  0  0  0  0  0
   -2.5310    0.0060    0.2420 C   0  0  0  0  0  2  0  0  0  0  0  0
    0.0910   -2.9320   -0.2480 C   0  0  0  0  0  3  0  0  0  0  0  0
    0.1410   -4.2230    0.1150 O   0  0  0  0  0  0  0  0  0  0  0  0
    0.9250   -4.7180   -0.0210 H   0  0  0  0  0  0  0  0  0  0  0  0
    1.1580   -2.4270   -0.8900 O   0  0  0  0  0  0  0  0  0  0  0  0
    1.1610   -1.5290   -1.1600 H   0  0  0  0  0  0  0  0  0  0  0  0
    0.0270    0.1100   -0.2150 C   0  0  0  0  0  3  0  0  0  0  0  0
    0.0050    1.4510   -0.2580 C   0  0  0  0  0  2  0  0  0  0  0  0
   -4.9200   -4.5550   -0.4890 N   0  0  0  0  0  0  0  0  0  0  0  0
   -4.9910   -5.5360   -0.1340 H   0  0  0  0  0  0  0  0  0  0  0  0
   -5.8910   -4.1880   -0.6040 H   0  0  0  0  0  0  0  0  0  0  0  0
  1  2  2  0  0  0  0
  1  9  1  0  0  0  0
  2  3  1  0  0  0  0
  3  4  1  0  0  0  0
  4  5  2  0  0  0  0
  6 17  1  6  0  0  0
  6  4  1  0  0  0  0
  7  3  1  0  0  0  0
  7  6  1  0  0  0  0
  7  8  1  1  0  0  0
  9  8  1  0  0  0  0
 10  2  1  0  0  0  0
 10 11  1  0  0  0  0
 12 11  1  0  0  0  0
 13 10  1  0  0  0  0
 14 13  1  0  0  0  0
 15  1  1  0  0  0  0
 16 15  2  0  0  0  0
 17 18  1  0  0  0  0
 19 17  1  0  0  0  0
M  END
>  <REMARK>
  5 active torsions:
  status: ('A' for Active; 'I' for Inactive)
    1  A    between atoms: C_2  and  C_3 
    2  A    between atoms: C_4  and  C_5 
    3  A    between atoms: C_5  and  O_6 
    4  A    between atoms: C_5  and  O_7 
    5  A    between atoms: C_11  and  N_12 

>  <TORSDO>
F 5

$$$$
C:\Users\siddh\.mgltools\PyRx\Ligands\ZINC000004554514_uff_E=1059.41.pdbqt
 OpenBabel04182118313D

 19 20  0  0  1  0  0  0  0  0999 V2000
   -1.2540   -0.7690    0.1980 C   0  0  0  0  0  0  0  0  0  0  0  0
   -1.2260   -2.0940   -0.1410 C   0  0  0  0  0  0  0  0  0  0  0  0
   -2.4520   -2.7480   -0.4170 N   0  0  0  0  0  0  0  0  0  0  0  0
   -2.8280   -3.8240   -1.0370 C   0  0  0  0  0  0  0  0  0  0  0  0
   -2.1330   -4.6590   -1.6010 O   0  0  0  0  0  0  0  0  0  0  0  0
   -4.2930   -3.6360   -0.8910 C   0  0  2  0  0  3  0  0  0  0  0  0
   -3.7690   -2.3450   -0.0490 C   0  0  2  0  0  3  0  0  0  0  0  0
   -4.0210   -0.7090   -0.7360 S   0  0  0  0  0  0  0  0  0  0  0  0
   -2.5810    0.0210    0.1740 C   0  0  0  0  0  2  0  0  0  0  0  0
    0.0450   -2.8610   -0.2450 C   0  0  0  0  0  3  0  0  0  0  0  0
    0.9360   -2.8500    0.7660 O   0  0  0  0  0  0  0  0  0  0  0  0
    1.7340   -3.3360    0.6920 H   0  0  0  0  0  0  0  0  0  0  0  0
    0.2980   -3.6050   -1.3370 O   0  0  0  0  0  0  0  0  0  0  0  0
   -0.3140   -3.6200   -2.0460 H   0  0  0  0  0  0  0  0  0  0  0  0
    0.0230   -0.0220    0.4820 C   0  0  0  0  0  3  0  0  0  0  0  0
    0.0720    1.2860    0.7630 C   0  0  0  0  0  2  0  0  0  0  0  0
   -4.9250   -4.6710   -0.0750 N   0  0  0  0  0  0  0  0  0  0  0  0
   -4.9880   -5.5500   -0.6370 H   0  0  0  0  0  0  0  0  0  0  0  0
   -4.3690   -4.8640    0.7910 H   0  0  0  0  0  0  0  0  0  0  0  0
  1 15  1  0  0  0  0
  2  1  2  0  0  0  0
  3  2  1  0  0  0  0
  3  7  1  0  0  0  0
  4  6  1  0  0  0  0
  4  3  1  0  0  0  0
  5  4  2  0  0  0  0
  6 17  1  1  0  0  0
  6  7  1  0  0  0  0
  7  8  1  6  0  0  0
  8  9  1  0  0  0  0
  9  1  1  0  0  0  0
 10  2  1  0  0  0  0
 10 11  1  0  0  0  0
 12 11  1  0  0  0  0
 13 10  1  0  0  0  0
 14 13  1  0  0  0  0
 15 16  2  0  0  0  0
 17 19  1  0  0  0  0
 18 17  1  0  0  0  0
M  END
>  <REMARK>
  5 active torsions:
  status: ('A' for Active; 'I' for Inactive)
    1  A    between atoms: C_2  and  C_3 
    2  A    between atoms: C_4  and  C_5 
    3  A    between atoms: C_5  and  O_6 
    4  A    between atoms: C_5  and  O_7 
    5  A    between atoms: C_11  and  N_12 

>  <TORSDO>
F 5

$$$$
C:\Users\siddh\.mgltools\PyRx\Ligands\ZINC000004554513_uff_E=1028.10.pdbqt
 OpenBabel04182118313D

 19 20  0  0  1  0  0  0  0  0999 V2000
   -1.1770   -0.7140   -0.0580 C   0  0  0  0  0  0  0  0  0  0  0  0
   -1.1230   -2.0960   -0.0440 C   0  0  0  0  0  0  0  0  0  0  0  0
   -2.3500   -2.8050    0.1430 N   0  0  0  0  0  0  0  0  0  0  0  0
   -2.7210   -3.9950    0.5270 C   0  0  0  0  0  0  0  0  0  0  0  0
   -2.0390   -4.9420    0.8850 O   0  0  0  0  0  0  0  0  0  0  0  0
   -4.1870   -3.7790    0.4820 C   0  0  2  0  0  3  0  0  0  0  0  0
   -3.6800   -2.3260   -0.0520 C   0  0  1  0  0  3  0  0  0  0  0  0
   -3.8960   -0.8870    0.9950 S   0  0  0  0  0  0  0  0  0  0  0  0
   -2.5080    0.0260    0.1990 C   0  0  0  0  0  2  0  0  0  0  0  0
    0.1500   -2.8860   -0.2390 C   0  0  0  0  0  3  0  0  0  0  0  0
    0.2280   -4.1630    0.1650 O   0  0  0  0  0  0  0  0  0  0  0  0
    1.0210   -4.6460    0.0400 H   0  0  0  0  0  0  0  0  0  0  0  0
    1.2020   -2.3810   -0.9070 O   0  0  0  0  0  0  0  0  0  0  0  0
    1.1850   -1.4930   -1.2060 H   0  0  0  0  0  0  0  0  0  0  0  0
    0.0550    0.1460   -0.2240 C   0  0  0  0  0  3  0  0  0  0  0  0
    0.0260    1.4860   -0.2690 C   0  0  0  0  0  2  0  0  0  0  0  0
   -4.7710   -3.7880    1.8240 N   0  0  0  0  0  0  0  0  0  0  0  0
   -4.8000   -4.7780    2.1630 H   0  0  0  0  0  0  0  0  0  0  0  0
   -4.1830   -3.2430    2.4970 H   0  0  0  0  0  0  0  0  0  0  0  0
  1  2  2  0  0  0  0
  1  9  1  0  0  0  0
  2  3  1  0  0  0  0
  3  4  1  0  0  0  0
  4  5  2  0  0  0  0
  6  4  1  0  0  0  0
  6 17  1  1  0  0  0
  7  3  1  0  0  0  0
  7  6  1  0  0  0  0
  7  8  1  1  0  0  0
  9  8  1  0  0  0  0
 10  2  1  0  0  0  0
 10 11  1  0  0  0  0
 12 11  1  0  0  0  0
 13 10  1  0  0  0  0
 14 13  1  0  0  0  0
 15  1  1  0  0  0  0
 16 15  2  0  0  0  0
 17 18  1  0  0  0  0
 17 19  1  0  0  0  0
M  END
>  <REMARK>
  5 active torsions:
  status: ('A' for Active; 'I' for Inactive)
    1  A    between atoms: C_2  and  C_3 
    2  A    between atoms: C_4  and  C_5 
    3  A    between atoms: C_5  and  O_6 
    4  A    between atoms: C_5  and  O_7 
    5  A    between atoms: C_11  and  N_12 

>  <TORSDO>
F 5

$$$$
C:\Users\siddh\.mgltools\PyRx\Ligands\ZINC000004553155_uff_E=301.85.pdbqt
 OpenBabel04182118313D

 16 17  0  0  1  0  0  0  0  0999 V2000
    0.0660   -0.1220    0.0030 O   0  0  0  0  0  0  0  0  0  0  0  0
   -0.0140    1.2240   -0.0030 C   0  0  0  0  0  3  0  0  0  0  0  0
    0.2170   -1.0470    0.0150 H   0  0  0  0  0  0  0  0  0  0  0  0
    1.1180    1.9520    0.0070 O   0  0  0  0  0  0  0  0  0  0  0  0
    1.0740    2.8880    0.0030 H   0  0  0  0  0  0  0  0  0  0  0  0
   -1.3490    1.9240   -0.0010 C   0  0  0  0  0  2  0  0  0  0  0  0
   -2.5290    0.9390   -0.0280 C   0  0  1  0  0  3  0  0  0  0  0  0
   -3.8540    1.6700    0.0760 C   0  0  0  0  0  0  0  0  0  0  0  0
   -4.6730    1.4780   -0.9590 N   0  0  0  0  0  0  0  0  0  0  0  0
   -4.1630    2.3670    1.0290 O   0  0  0  0  0  0  0  0  0  0  0  0
   -4.1940    0.6700   -1.9260 C   0  0  1  0  0  3  0  0  0  0  0  0
   -5.9880    1.9510   -1.2710 C   0  0  0  0  0  3  0  0  0  0  0  0
   -2.5720   -0.0080   -1.6560 S   0  0  0  0  0  0  0  0  0  0  0  0
   -4.9910    0.5030   -2.8970 N   0  0  0  0  0  0  0  0  0  0  0  0
   -6.2180    1.2590   -2.6610 C   0  0  0  0  0  3  0  0  0  0  0  0
   -4.8050   -0.0730   -3.7180 H   0  0  0  0  0  0  0  0  0  0  0  0
  1  3  1  0  0  0  0
  2  6  1  0  0  0  0
  2  1  1  0  0  0  0
  2  4  1  0  0  0  0
  5  4  1  0  0  0  0
  7  6  1  6  0  0  0
  7  8  1  0  0  0  0
  8 10  2  0  0  0  0
  9  8  1  0  0  0  0
 11 13  1  1  0  0  0
 11  9  1  0  0  0  0
 12  9  1  0  0  0  0
 13  7  1  0  0  0  0
 14 15  1  0  0  0  0
 14 11  1  0  0  0  0
 15 12  2  0  0  0  0
 16 14  1  0  0  0  0
M  END
>  <REMARK>
  3 active torsions:
  status: ('A' for Active; 'I' for Inactive)
    1  A    between atoms: C_2  and  O_3 
    2  A    between atoms: C_2  and  C_4 
    3  A    between atoms: C_4  and  C_5 

>  <TORSDO>
F 3

$$$$
C:\Users\siddh\.mgltools\PyRx\Ligands\ZINC000004487220_uff_E=344.90.pdbqt
 OpenBabel04182118313D

 20 21  0  0  0  0  0  0  0  0999 V2000
    0.0300   -0.1380    0.0030 O   0  0  0  0  0  0  0  0  0  0  0  0
    0.0140    1.2080    0.0080 C   0  0  0  0  0  3  0  0  0  0  0  0
    0.0590   -1.0740   -0.0060 H   0  0  0  0  0  0  0  0  0  0  0  0
    1.1750    1.8900    0.0020 O   0  0  0  0  0  0  0  0  0  0  0  0
    1.1690    2.8270    0.0060 H   0  0  0  0  0  0  0  0  0  0  0  0
   -1.2640    1.9280    0.0160 C   0  0  0  0  0  0  0  0  0  0  0  0
   -2.5420    1.3800    0.0220 C   0  0  0  0  0  2  0  0  0  0  0  0
   -3.4540    2.3860    0.0260 N   0  0  0  0  0  0  0  0  0  0  0  0
   -2.7810    3.5270    0.0240 N   0  0  0  0  0  0  0  0  0  0  0  0
   -4.4680    2.2820    0.0310 H   0  0  0  0  0  0  0  0  0  0  0  0
   -1.4700    3.2820    0.0200 C   0  0  0  0  0  0  0  0  0  0  0  0
   -3.2880    4.7800    0.0270 C   0  0  0  0  0  2  0  0  0  0  0  0
   -0.5550    4.2830    0.0230 N   0  0  0  0  0  0  0  0  0  0  0  0
   -0.9950    5.5740    0.0340 C   0  0  0  0  0  3  0  0  0  0  0  0
    0.4430    4.0740    0.0160 H   0  0  0  0  0  0  0  0  0  0  0  0
   -2.3820    5.8570    0.0330 C   0  0  0  0  0  0  0  0  0  0  0  0
   -2.8740    7.2750    0.0450 C   0  0  0  0  0  2  0  0  0  0  0  0
   -2.9100    7.8230    1.4680 C   0  0  0  0  0  2  0  0  0  0  0  0
   -3.3790    9.1430    1.4340 O   0  0  0  0  0  0  0  0  0  0  0  0
   -3.4010    9.4580    2.3740 H   0  0  0  0  0  0  0  0  0  0  0  0
  1  2  1  0  0  0  0
  2  6  1  0  0  0  0
  3  1  1  0  0  0  0
  4  5  1  0  0  0  0
  4  2  1  0  0  0  0
  6 11  2  0  0  0  0
  6  7  1  0  0  0  0
  7  8  1  0  0  0  0
  8 10  1  0  0  0  0
  9  8  1  0  0  0  0
  9 12  1  0  0  0  0
 11 13  1  0  0  0  0
 11  9  1  0  0  0  0
 12 16  1  0  0  0  0
 13 14  1  0  0  0  0
 15 13  1  0  0  0  0
 16 14  2  0  0  0  0
 16 17  1  0  0  0  0
 17 18  1  0  0  0  0
 19 18  1  0  0  0  0
 19 20  1  0  0  0  0
M  END
>  <REMARK>
  5 active torsions:
  status: ('A' for Active; 'I' for Inactive)
    1  A    between atoms: C_2  and  O_3 
    2  A    between atoms: C_2  and  C_4 
    3  A    between atoms: C_9  and  C_10 
    4  A    between atoms: C_10  and  C_11 
    5  A    between atoms: C_11  and  O_12 

>  <TORSDO>
F 5

$$$$
C:\Users\siddh\.mgltools\PyRx\Ligands\ZINC000004476560_uff_E=302.92.pdbqt
 OpenBabel04182118313D

 22 22  0  0  1  0  0  0  0  0999 V2000
   -1.2410   -0.7540    0.0110 C   0  0  0  0  0  0  0  0  0  0  0  0
   -1.3750   -2.1340    0.0090 C   0  0  0  0  0  0  0  0  0  0  0  0
   -2.6800   -2.4600    0.0190 N   0  0  0  0  0  0  0  0  0  0  0  0
   -3.0890   -3.3940    0.0200 H   0  0  0  0  0  0  0  0  0  0  0  0
   -3.3270   -1.2750    0.0260 C   0  0  2  0  0  3  0  0  0  0  0  0
   -2.4810   -0.2260    0.0230 N   0  0  0  0  0  0  0  0  0  0  0  0
   -2.7600    0.7790    0.0270 H   0  0  0  0  0  0  0  0  0  0  0  0
   -5.1140   -1.0850    0.0400 S   0  0  0  0  0  0  0  0  0  0  0  0
   -5.5430   -2.8630    0.0400 C   0  0  0  0  0  2  0  0  0  0  0  0
   -7.0330   -3.0480    0.0510 C   0  0  0  0  0  3  0  0  0  0  0  0
   -7.8640   -1.9870    0.0580 O   0  0  0  0  0  0  0  0  0  0  0  0
   -8.7920   -2.1180    0.0650 H   0  0  0  0  0  0  0  0  0  0  0  0
   -7.5490   -4.2910    0.0520 O   0  0  0  0  0  0  0  0  0  0  0  0
   -6.9790   -5.0350    0.0470 H   0  0  0  0  0  0  0  0  0  0  0  0
   -0.3400   -3.0990   -0.0000 N   0  0  0  0  0  0  0  0  0  0  0  0
    0.6510   -2.8290   -0.0060 H   0  0  0  0  0  0  0  0  0  0  0  0
   -0.5770   -4.1010    0.0000 H   0  0  0  0  0  0  0  0  0  0  0  0
    0.0190    0.0410    0.0030 C   0  0  0  0  0  0  0  0  0  0  0  0
   -0.0060    1.3940    0.0080 N   0  0  0  0  0  0  0  0  0  0  0  0
    0.8780    1.9230    0.0020 H   0  0  0  0  0  0  0  0  0  0  0  0
   -0.8900    1.9170    0.0190 H   0  0  0  0  0  0  0  0  0  0  0  0
    1.0980   -0.5300   -0.0090 O   0  0  0  0  0  0  0  0  0  0  0  0
  1  6  1  0  0  0  0
  2  1  2  0  0  0  0
  2  3  1  0  0  0  0
  3  4  1  0  0  0  0
  3  5  1  0  0  0  0
  5  8  1  1  0  0  0
  6  5  1  0  0  0  0
  6  7  1  0  0  0  0
  8  9  1  0  0  0  0
  9 10  1  0  0  0  0
 10 13  1  0  0  0  0
 10 11  1  0  0  0  0
 11 12  1  0  0  0  0
 14 13  1  0  0  0  0
 15 17  1  0  0  0  0
 15  2  1  0  0  0  0
 16 15  1  0  0  0  0
 18 19  1  0  0  0  0
 18  1  1  0  0  0  0
 19 21  1  0  0  0  0
 20 19  1  0  0  0  0
 22 18  2  0  0  0  0
M  END
>  <REMARK>
  7 active torsions:
  status: ('A' for Active; 'I' for Inactive)
       I    between atoms: N_1  and  C_2 
    1  A    between atoms: C_2  and  C_4 
    2  A    between atoms: C_5  and  N_6 
    3  A    between atoms: C_9  and  S_10 
    4  A    between atoms: S_10  and  C_11 
    5  A    between atoms: C_11  and  C_12 
    6  A    between atoms: C_12  and  O_13 
    7  A    between atoms: C_12  and  O_14 

>  <TORSDO>
F 7

$$$$
C:\Users\siddh\.mgltools\PyRx\Ligands\ZINC000004471901_uff_E=179.12.pdbqt
 OpenBabel04182118313D

 17 17  0  0  0  0  0  0  0  0999 V2000
    0.2070    0.0700    2.4580 C   0  0  0  0  0  0  0  0  0  0  0  0
    0.0490    1.2790    2.5300 O   0  0  0  0  0  0  0  0  0  0  0  0
    0.3710   -0.6500    3.6280 N   0  0  0  0  0  0  0  0  0  0  0  0
    0.4790   -2.1070    3.6870 C   0  0  0  0  0  2  0  0  0  0  0  0
    1.7740   -2.4750    4.4140 C   0  0  0  0  0  2  0  0  0  0  0  0
    1.7850   -1.8390    5.7470 N   0  0  0  0  0  0  0  0  0  0  0  0
    2.9600   -2.2620    6.5180 C   0  0  0  0  0  1  0  0  0  0  0  0
    1.7350   -0.3680    5.6190 C   0  0  0  0  0  2  0  0  0  0  0  0
    0.4340    0.0350    4.9170 C   0  0  0  0  0  2  0  0  0  0  0  0
    0.2200   -0.5710    1.0930 C   0  0  0  0  0  2  0  0  0  0  0  0
   -0.1980    0.0310   -0.0560 C   0  0  0  0  0  0  0  0  0  0  0  0
   -0.7790    1.4280   -0.0660 C   0  0  0  0  0  1  0  0  0  0  0  0
   -0.1090   -0.7150   -1.3480 C   0  0  0  0  0  0  0  0  0  0  0  0
    0.3880   -1.9670   -1.3880 O   0  0  0  0  0  0  0  0  0  0  0  0
    0.4400   -2.4250   -2.2030 H   0  0  0  0  0  0  0  0  0  0  0  0
   -0.5060   -0.1360   -2.4980 O   0  0  0  0  0  0  0  0  0  0  0  0
   -0.8540    0.7340   -2.4890 H   0  0  0  0  0  0  0  0  0  0  0  0
  1  2  2  0  0  0  0
  1  3  1  0  0  0  0
  3  4  1  0  0  0  0
  3  9  1  0  0  0  0
  4  5  1  0  0  0  0
  5  6  1  0  0  0  0
  6  7  1  0  0  0  0
  8  6  1  0  0  0  0
  9  8  1  0  0  0  0
 10  1  1  0  0  0  0
 11 10  1  0  0  0  0
 12 11  1  0  0  0  0
 13 11  2  0  0  0  0
 14 13  1  0  0  0  0
 15 14  1  0  0  0  0
 16 17  1  0  0  0  0
 16 13  1  0  0  0  0
M  END
>  <REMARK>
  4 active torsions:
  status: ('A' for Active; 'I' for Inactive)
    1  A    between atoms: C_2  and  C_13 
    2  A    between atoms: C_3  and  C_4 
       I    between atoms: C_4  and  N_6 
    3  A    between atoms: C_13  and  O_14 
    4  A    between atoms: C_13  and  O_15 

>  <TORSDO>
F 4

$$$$
C:\Users\siddh\.mgltools\PyRx\Ligands\ZINC000004395661_uff_E=116.61.pdbqt
 OpenBabel04182118313D

 19 19  0  0  0  0  0  0  0  0999 V2000
   -0.5670   -3.9500    1.0080 N   0  0  0  0  0  0  0  0  0  0  0  0
   -1.1410   -4.6360    2.0220 C   0  0  0  0  0  0  0  0  0  0  0  0
   -1.6740   -4.0260    2.9400 O   0  0  0  0  0  0  0  0  0  0  0  0
   -0.1100   -4.4550    0.2320 H   0  0  0  0  0  0  0  0  0  0  0  0
   -1.1200   -6.1430    2.0190 C   0  0  0  0  0  2  0  0  0  0  0  0
   -1.8150   -6.7080    3.2610 C   0  0  0  0  0  2  0  0  0  0  0  0
   -1.8060   -8.2360    3.2750 C   0  0  0  0  0  2  0  0  0  0  0  0
   -2.4910   -8.7820    4.4980 C   0  0  0  0  0  3  0  0  0  0  0  0
   -3.0230   -7.9570    5.4240 O   0  0  0  0  0  0  0  0  0  0  0  0
   -3.4460   -8.3130    6.1810 H   0  0  0  0  0  0  0  0  0  0  0  0
   -2.5760  -10.1130    4.6730 O   0  0  0  0  0  0  0  0  0  0  0  0
   -2.2090  -10.6940    4.0350 H   0  0  0  0  0  0  0  0  0  0  0  0
   -0.5930   -2.5590    1.0260 N   0  0  0  0  0  0  0  0  0  0  0  0
   -1.2930   -2.0630   -0.1650 C   0  0  0  0  0  2  0  0  0  0  0  0
   -1.3540   -0.5370   -0.0980 C   0  0  0  0  0  2  0  0  0  0  0  0
    0.0160    0.0110   -0.0240 N   0  0  0  0  0  0  0  0  0  0  0  0
   -0.0200    1.4780    0.0120 C   0  0  0  0  0  1  0  0  0  0  0  0
    0.7230   -0.5160    1.1600 C   0  0  0  0  0  2  0  0  0  0  0  0
    0.7790   -2.0420    1.0880 C   0  0  0  0  0  2  0  0  0  0  0  0
  1 13  1  0  0  0  0
  1  2  1  0  0  0  0
  2  3  2  0  0  0  0
  4  1  1  0  0  0  0
  5  2  1  0  0  0  0
  5  6  1  0  0  0  0
  6  7  1  0  0  0  0
  7  8  1  0  0  0  0
  8 11  1  0  0  0  0
  8  9  1  0  0  0  0
  9 10  1  0  0  0  0
 12 11  1  0  0  0  0
 13 19  1  0  0  0  0
 14 15  1  0  0  0  0
 14 13  1  0  0  0  0
 15 16  1  0  0  0  0
 16 17  1  0  0  0  0
 16 18  1  0  0  0  0
 19 18  1  0  0  0  0
M  END
>  <REMARK>
  7 active torsions:
  status: ('A' for Active; 'I' for Inactive)
    1  A    between atoms: N_5  and  N_6 
       I    between atoms: N_6  and  C_7 
    2  A    between atoms: C_7  and  C_9 
    3  A    between atoms: C_9  and  C_10 
    4  A    between atoms: C_10  and  C_11 
    5  A    between atoms: C_11  and  C_12 
    6  A    between atoms: C_12  and  O_13 
    7  A    between atoms: C_12  and  O_14 

>  <TORSDO>
F 7

$$$$
C:\Users\siddh\.mgltools\PyRx\Ligands\ZINC000004386286_uff_E=391.99.pdbqt
 OpenBabel04182118313D

 21 22  0  0  1  0  0  0  0  0999 V2000
    0.0360    1.5130    0.0050 C   0  0  0  0  0  1  0  0  0  0  0  0
    0.0260    0.0140    0.0020 C   0  0  0  0  0  0  0  0  0  0  0  0
   -1.2080   -0.7100    0.0120 C   0  0  0  0  0  0  0  0  0  0  0  0
   -2.5420   -0.0050    0.0120 C   0  0  0  0  0  1  0  0  0  0  0  0
   -1.1500   -2.1190    0.0000 C   0  0  0  0  0  0  0  0  0  0  0  0
   -2.1610   -2.8010   -0.0030 O   0  0  0  0  0  0  0  0  0  0  0  0
    0.0780   -2.7040   -0.0110 N   0  0  0  0  0  0  0  0  0  0  0  0
    0.3660   -3.9910   -0.0200 N   0  0  0  0  0  0  0  0  0  0  0  0
   -0.2940   -4.7680   -0.0210 H   0  0  0  0  0  0  0  0  0  0  0  0
    1.7200   -4.0690   -0.0280 C   0  0  1  0  0  3  0  0  0  0  0  0
    2.2790   -2.8290   -0.0250 N   0  0  0  0  0  0  0  0  0  0  0  0
    1.2120   -2.0130   -0.0140 C   0  0  1  0  0  3  0  0  0  0  0  0
    1.2220   -0.6580   -0.0100 N   0  0  0  0  0  0  0  0  0  0  0  0
    2.1040   -0.1460   -0.0150 H   0  0  0  0  0  0  0  0  0  0  0  0
    3.2920   -2.5720   -0.0290 H   0  0  0  0  0  0  0  0  0  0  0  0
    2.5050   -5.3570   -0.0380 C   0  0  0  0  0  2  0  0  0  0  0  0
    1.6650   -6.6180   -0.0400 C   0  0  0  0  0  3  0  0  0  0  0  0
    0.3180   -6.5760   -0.0330 O   0  0  0  0  0  0  0  0  0  0  0  0
   -0.1750   -7.3730   -0.0350 H   0  0  0  0  0  0  0  0  0  0  0  0
    2.2780   -7.8150   -0.0490 O   0  0  0  0  0  0  0  0  0  0  0  0
    3.2140   -7.8620   -0.0540 H   0  0  0  0  0  0  0  0  0  0  0  0
  2  1  1  0  0  0  0
  2  3  2  0  0  0  0
  3  4  1  0  0  0  0
  5  3  1  0  0  0  0
  6  5  2  0  0  0  0
  7  5  1  0  0  0  0
  8  7  1  0  0  0  0
  9  8  1  0  0  0  0
 10 16  1  1  0  0  0
 10 11  1  0  0  0  0
 10  8  1  0  0  0  0
 12 11  1  6  0  0  0
 12  7  1  0  0  0  0
 12 13  1  0  0  0  0
 13  2  1  0  0  0  0
 14 13  1  0  0  0  0
 15 11  1  0  0  0  0
 17 16  1  0  0  0  0
 17 18  1  0  0  0  0
 19 18  1  0  0  0  0
 20 17  1  0  0  0  0
 21 20  1  0  0  0  0
M  END
>  <REMARK>
  4 active torsions:
  status: ('A' for Active; 'I' for Inactive)
    1  A    between atoms: C_10  and  C_11 
    2  A    between atoms: C_11  and  C_12 
    3  A    between atoms: C_12  and  O_13 
    4  A    between atoms: C_12  and  O_14 

>  <TORSDO>
F 4

$$$$
C:\Users\siddh\.mgltools\PyRx\Ligands\ZINC000004324685_uff_E=376.28.pdbqt
 OpenBabel04182118313D

 20 21  0  0  1  0  0  0  0  0999 V2000
    0.0580   -4.1730   -0.0430 C   0  0  0  0  0  0  0  0  0  0  0  0
    0.0700   -4.7660    1.0270 O   0  0  0  0  0  0  0  0  0  0  0  0
    0.0620   -4.8680   -1.2160 N   0  0  0  0  0  0  0  0  0  0  0  0
    0.0800   -6.2880   -1.2560 C   0  0  2  0  0  3  0  0  0  0  0  0
    0.0930   -7.0950   -0.1810 N   0  0  0  0  0  0  0  0  0  0  0  0
    0.0920   -6.8170    0.8010 H   0  0  0  0  0  0  0  0  0  0  0  0
    0.1090   -8.3240   -0.6650 N   0  0  0  0  0  0  0  0  0  0  0  0
    0.1050   -8.2740   -1.9910 N   0  0  0  0  0  0  0  0  0  0  0  0
    0.0870   -7.0120   -2.3860 N   0  0  0  0  0  0  0  0  0  0  0  0
    0.0520   -4.3580   -2.1130 H   0  0  0  0  0  0  0  0  0  0  0  0
    0.0810   -6.6750   -3.3110 H   0  0  0  0  0  0  0  0  0  0  0  0
    0.0390   -2.6960   -0.0400 C   0  0  0  0  0  0  0  0  0  0  0  0
    0.0270   -2.0040   -1.2130 N   0  0  0  0  0  0  0  0  0  0  0  0
    0.0090   -0.6480   -1.2280 C   0  0  0  0  0  3  0  0  0  0  0  0
    0.0310   -2.5150   -2.0960 H   0  0  0  0  0  0  0  0  0  0  0  0
   -0.0020    0.0550   -0.0170 C   0  0  0  0  0  0  0  0  0  0  0  0
   -0.0200    1.5440    0.0030 C   0  0  0  0  0  1  0  0  0  0  0  0
    0.0130   -0.6330    1.1550 N   0  0  0  0  0  0  0  0  0  0  0  0
    0.0340   -1.9880    1.1700 C   0  0  0  0  0  3  0  0  0  0  0  0
    0.0090   -0.1210    2.0370 H   0  0  0  0  0  0  0  0  0  0  0  0
  1 12  1  0  0  0  0
  1  2  2  0  0  0  0
  3  1  1  0  0  0  0
  4  3  1  6  0  0  0
  4  5  1  0  0  0  0
  5  6  1  0  0  0  0
  7  5  1  0  0  0  0
  8  7  2  0  0  0  0
  9  8  1  0  0  0  0
  9  4  1  0  0  0  0
 10  3  1  0  0  0  0
 11  9  1  0  0  0  0
 12 19  2  0  0  0  0
 13 12  1  0  0  0  0
 14 13  1  0  0  0  0
 14 16  2  0  0  0  0
 15 13  1  0  0  0  0
 16 17  1  0  0  0  0
 16 18  1  0  0  0  0
 18 19  1  0  0  0  0
 18 20  1  0  0  0  0
M  END
>  <REMARK>
  1 active torsions:
  status: ('A' for Active; 'I' for Inactive)
    1  A    between atoms: C_6  and  C_7 
       I    between atoms: C_7  and  N_9 
       I    between atoms: N_9  and  C_10 

>  <TORSDO>
F 1

$$$$
C:\Users\siddh\.mgltools\PyRx\Ligands\ZINC000004298586_uff_E=79.09.pdbqt
 OpenBabel04182118313D

 23 23  0  0  1  0  0  0  0  0999 V2000
    0.0850   -0.1210    0.0010 O   0  0  0  0  0  0  0  0  0  0  0  0
    0.0190    1.2270    0.0070 C   0  0  0  0  0  3  0  0  0  0  0  0
    0.2110   -1.0490   -0.0120 H   0  0  0  0  0  0  0  0  0  0  0  0
    1.1560    1.9460    0.0040 O   0  0  0  0  0  0  0  0  0  0  0  0
    1.1180    2.8820    0.0090 H   0  0  0  0  0  0  0  0  0  0  0  0
   -1.3050    1.9360    0.0180 C   0  0  0  0  0  2  0  0  0  0  0  0
   -2.4720    0.9510    0.0190 C   0  0  0  0  0  2  0  0  0  0  0  0
   -3.8060    1.6880    0.0290 C   0  0  0  0  0  2  0  0  0  0  0  0
   -4.9460    0.6760    0.0290 C   0  0  0  0  0  2  0  0  0  0  0  0
   -6.2850    1.3920    0.0390 C   0  0  0  0  0  2  0  0  0  0  0  0
   -7.3680    0.4350    0.0390 N   0  0  0  0  0  0  0  0  0  0  0  0
   -8.7080    0.8860    0.0470 C   0  0  1  0  0  3  0  0  0  0  0  0
   -9.7320   -0.0120    0.0510 N   0  0  0  0  0  0  0  0  0  0  0  0
   -8.9710    2.2180    0.0510 N   0  0  0  0  0  0  0  0  0  0  0  0
  -11.0340    0.4250    0.0610 C   0  0  0  0  0  0  0  0  0  0  0  0
   -9.5260   -1.0370    0.0480 H   0  0  0  0  0  0  0  0  0  0  0  0
  -11.3080    1.7930    0.0650 C   0  0  0  0  0  3  0  0  0  0  0  0
  -11.9470   -0.3830    0.0650 O   0  0  0  0  0  0  0  0  0  0  0  0
  -10.2400    2.6890    0.0600 C   0  0  0  0  0  0  0  0  0  0  0  0
   -8.1940    2.8790    0.0480 H   0  0  0  0  0  0  0  0  0  0  0  0
   -7.1710   -0.5770    0.0340 H   0  0  0  0  0  0  0  0  0  0  0  0
  -10.4620    4.0150    0.0630 O   0  0  0  0  0  0  0  0  0  0  0  0
   -9.7200    4.6380    0.0590 H   0  0  0  0  0  0  0  0  0  0  0  0
  1  2  1  0  0  0  0
  2  6  1  0  0  0  0
  3  1  1  0  0  0  0
  4  2  1  0  0  0  0
  4  5  1  0  0  0  0
  6  7  1  0  0  0  0
  7  8  1  0  0  0  0
  8  9  1  0  0  0  0
  9 10  1  0  0  0  0
 10 11  1  0  0  0  0
 12 11  1  1  0  0  0
 12 13  1  0  0  0  0
 12 14  1  0  0  0  0
 13 15  1  0  0  0  0
 14 19  1  0  0  0  0
 15 17  1  0  0  0  0
 15 18  2  0  0  0  0
 16 13  1  0  0  0  0
 19 22  1  0  0  0  0
 19 17  2  0  0  0  0
 20 14  1  0  0  0  0
 21 11  1  0  0  0  0
 23 22  1  0  0  0  0
M  END
>  <REMARK>
  8 active torsions:
  status: ('A' for Active; 'I' for Inactive)
    1  A    between atoms: C_2  and  O_3 
    2  A    between atoms: C_2  and  C_4 
    3  A    between atoms: C_4  and  C_5 
    4  A    between atoms: C_5  and  C_6 
    5  A    between atoms: C_6  and  C_7 
    6  A    between atoms: C_7  and  C_8 
    7  A    between atoms: C_8  and  N_9 
       I    between atoms: N_9  and  C_10 
    8  A    between atoms: C_13  and  O_14 

>  <TORSDO>
F 8

$$$$
C:\Users\siddh\.mgltools\PyRx\Ligands\ZINC000004298478_uff_E=445.81.pdbqt
 OpenBabel04182118313D

 20 21  0  0  1  0  0  0  0  0999 V2000
   -1.2820    1.9250    0.0550 C   0  0  1  0  0  3  0  0  0  0  0  0
   -2.4100    1.0900    0.7140 C   0  0  1  0  0  3  0  0  0  0  0  0
   -1.9430    0.6140    2.0600 C   0  0  0  0  0  2  0  0  0  0  0  0
   -1.8650    1.6620    2.8530 C   0  0  0  0  0  2  0  0  0  0  0  0
   -2.2720    2.8710    2.0630 C   0  0  2  0  0  3  0  0  0  0  0  0
   -3.3470    2.2110    1.1860 C   0  0  0  0  0  2  0  0  0  0  0  0
   -1.1760    3.1700    1.0010 C   0  0  1  0  0  3  0  0  0  0  0  0
    0.2140    3.4310    1.5590 C   0  0  0  0  0  0  0  0  0  0  0  0
    0.4200    3.3530    2.7610 O   0  0  0  0  0  0  0  0  0  0  0  0
    1.2330    3.7220    0.7070 N   0  0  0  0  0  0  0  0  0  0  0  0
    1.0330    3.8270   -0.2990 H   0  0  0  0  0  0  0  0  0  0  0  0
    2.6010    3.8240    1.1820 C   0  0  0  0  0  2  0  0  0  0  0  0
    3.5550    4.1870    0.0480 C   0  0  0  0  0  2  0  0  0  0  0  0
    3.2460    5.4660   -0.4290 O   0  0  0  0  0  0  0  0  0  0  0  0
    3.9430    5.6870   -1.0980 H   0  0  0  0  0  0  0  0  0  0  0  0
   -0.0110    1.1320   -0.1890 C   0  0  0  0  0  3  0  0  0  0  0  0
    0.6600    0.5710    0.8380 O   0  0  0  0  0  0  0  0  0  0  0  0
    1.0900    1.0820    1.4950 H   0  0  0  0  0  0  0  0  0  0  0  0
    0.4660    0.9990   -1.4400 O   0  0  0  0  0  0  0  0  0  0  0  0
    0.0070    1.3850   -2.1600 H   0  0  0  0  0  0  0  0  0  0  0  0
  1 16  1  1  0  0  0
  1  2  1  0  0  0  0
  1  7  1  0  0  0  0
  2  6  1  1  0  0  0
  2  3  1  0  0  0  0
  3  4  1  0  0  0  0
  5  6  1  6  0  0  0
  5  4  1  0  0  0  0
  7  8  1  1  0  0  0
  7  5  1  0  0  0  0
  8  9  2  0  0  0  0
 10 12  1  0  0  0  0
 10  8  1  0  0  0  0
 11 10  1  0  0  0  0
 13 12  1  0  0  0  0
 14 13  1  0  0  0  0
 15 14  1  0  0  0  0
 16 17  1  0  0  0  0
 17 18  1  0  0  0  0
 19 16  1  0  0  0  0
 20 19  1  0  0  0  0
M  END
>  <REMARK>
  7 active torsions:
  status: ('A' for Active; 'I' for Inactive)
    1  A    between atoms: O_1  and  C_2 
    2  A    between atoms: C_2  and  O_3 
    3  A    between atoms: C_2  and  C_4 
    4  A    between atoms: C_10  and  C_11 
       I    between atoms: C_11  and  N_13 
    5  A    between atoms: N_13  and  C_14 
    6  A    between atoms: C_14  and  C_15 
    7  A    between atoms: C_15  and  O_16 

>  <TORSDO>
F 7

$$$$
C:\Users\siddh\.mgltools\PyRx\Ligands\ZINC000004294715_uff_E=193.72.pdbqt
 OpenBabel04182118313D

 17 17  0  0  1  0  0  0  0  0999 V2000
   -1.4400   -0.7220    0.2730 N   0  0  0  0  0  0  0  0  0  0  0  0
   -2.5550   -0.7360    1.2370 C   0  0  0  0  0  2  0  0  0  0  0  0
   -3.7420   -1.4910    0.6530 C   0  0  0  0  0  2  0  0  0  0  0  0
   -3.3550   -2.7900    0.1520 N   0  0  0  0  0  0  0  0  0  0  0  0
   -2.0640   -3.1240   -0.1140 C   0  0  0  0  0  0  0  0  0  0  0  0
   -1.8150   -4.2690   -0.4720 O   0  0  0  0  0  0  0  0  0  0  0  0
   -0.9150   -2.1090   -0.0030 C   0  0  0  0  0  0  0  0  0  0  0  0
   -0.1710   -2.1250   -1.3620 C   0  0  0  0  0  1  0  0  0  0  0  0
    0.0460   -2.6150    1.0980 C   0  0  0  0  0  1  0  0  0  0  0  0
   -4.0980   -3.4830   -0.0230 H   0  0  0  0  0  0  0  0  0  0  0  0
   -0.4320    0.3630    0.5110 C   0  0  1  0  0  3  0  0  0  0  0  0
   -1.0120    1.7500    0.1910 C   0  0  0  0  0  1  0  0  0  0  0  0
    0.1540    0.3730    1.9100 C   0  0  0  0  0  3  0  0  0  0  0  0
   -0.6300    0.5740    2.9860 O   0  0  0  0  0  0  0  0  0  0  0  0
   -0.2550    0.5780    3.8450 H   0  0  0  0  0  0  0  0  0  0  0  0
    1.4830    0.2300    2.0790 O   0  0  0  0  0  0  0  0  0  0  0  0
    2.0380    0.0900    1.3370 H   0  0  0  0  0  0  0  0  0  0  0  0
  1 11  1  0  0  0  0
  1  2  1  0  0  0  0
  3  2  1  0  0  0  0
  4  3  1  0  0  0  0
  5  7  1  0  0  0  0
  5  4  1  0  0  0  0
  6  5  2  0  0  0  0
  7  1  1  0  0  0  0
  7  9  1  0  0  0  0
  8  7  1  0  0  0  0
 10  4  1  0  0  0  0
 11 12  1  1  0  0  0
 11 13  1  0  0  0  0
 13 16  1  0  0  0  0
 13 14  1  0  0  0  0
 14 15  1  0  0  0  0
 17 16  1  0  0  0  0
M  END
>  <REMARK>
  4 active torsions:
  status: ('A' for Active; 'I' for Inactive)
    1  A    between atoms: C_2  and  C_3 
    2  A    between atoms: C_2  and  N_6 
    3  A    between atoms: C_3  and  O_4 
    4  A    between atoms: C_3  and  O_5 

>  <TORSDO>
F 4

$$$$
C:\Users\siddh\.mgltools\PyRx\Ligands\ZINC000004264671_uff_E=190.30.pdbqt
 OpenBabel04182118313D

 22 22  0  0  1  0  0  0  0  0999 V2000
    0.0920   -0.1490    0.0320 O   0  0  0  0  0  0  0  0  0  0  0  0
    0.0700    1.1970    0.0850 C   0  0  0  0  0  3  0  0  0  0  0  0
    0.1350   -1.0790   -0.0670 H   0  0  0  0  0  0  0  0  0  0  0  0
    1.2300    1.8730    0.1920 O   0  0  0  0  0  0  0  0  0  0  0  0
    1.2260    2.8090    0.2290 H   0  0  0  0  0  0  0  0  0  0  0  0
   -1.2500    1.9370    0.0470 C   0  0  1  0  0  3  0  0  0  0  0  0
   -1.0440    3.3170    0.2210 O   0  0  0  0  0  0  0  0  0  0  0  0
   -0.5110    3.6410   -0.5530 H   0  0  0  0  0  0  0  0  0  0  0  0
   -2.0430    1.6390   -1.2550 C   0  0  1  0  0  3  0  0  0  0  0  0
   -2.2080    0.2490   -1.4210 O   0  0  0  0  0  0  0  0  0  0  0  0
   -2.7080   -0.0970   -0.6350 H   0  0  0  0  0  0  0  0  0  0  0  0
   -3.3990    2.3270   -1.2760 C   0  0  0  0  0  0  0  0  0  0  0  0
   -4.4060    1.6380   -1.2800 O   0  0  0  0  0  0  0  0  0  0  0  0
   -3.4840    3.6910   -1.3690 N   0  0  0  0  0  0  0  0  0  0  0  0
   -2.6130    4.2220   -1.5130 H   0  0  0  0  0  0  0  0  0  0  0  0
   -4.7180    4.4220   -1.3990 C   0  0  0  0  0  0  0  0  0  0  0  0
   -5.9040    3.9370   -0.8010 C   0  0  0  0  0  3  0  0  0  0  0  0
   -7.0860    4.6750   -0.8750 C   0  0  0  0  0  3  0  0  0  0  0  0
   -7.1080    5.8990   -1.5440 C   0  0  0  0  0  0  0  0  0  0  0  0
   -5.9400    6.4010   -2.1210 C   0  0  0  0  0  3  0  0  0  0  0  0
   -8.2640    6.6030   -1.6270 F   0  0  0  0  0  0  0  0  0  0  0  0
   -4.7480    5.6730   -2.0400 C   0  0  0  0  0  3  0  0  0  0  0  0
  1  2  1  0  0  0  0
  2  4  1  0  0  0  0
  3  1  1  0  0  0  0
  4  5  1  0  0  0  0
  6  2  1  6  0  0  0
  6  7  1  0  0  0  0
  8  7  1  0  0  0  0
  9 10  1  1  0  0  0
  9  6  1  0  0  0  0
 10 11  1  0  0  0  0
 12  9  1  0  0  0  0
 13 12  2  0  0  0  0
 14 12  1  0  0  0  0
 15 14  1  0  0  0  0
 16 14  1  0  0  0  0
 16 17  1  0  0  0  0
 18 17  2  0  0  0  0
 19 18  1  0  0  0  0
 20 22  1  0  0  0  0
 20 19  2  0  0  0  0
 21 19  1  0  0  0  0
 22 16  2  0  0  0  0
M  END
>  <REMARK>
  7 active torsions:
  status: ('A' for Active; 'I' for Inactive)
    1  A    between atoms: C_2  and  O_3 
    2  A    between atoms: C_2  and  C_4 
    3  A    between atoms: C_4  and  O_5 
    4  A    between atoms: C_4  and  C_6 
    5  A    between atoms: C_6  and  O_7 
    6  A    between atoms: C_6  and  C_8 
       I    between atoms: C_8  and  N_10 
    7  A    between atoms: N_10  and  C_11 

>  <TORSDO>
F 7

$$$$
C:\Users\siddh\.mgltools\PyRx\Ligands\ZINC000004249556_uff_E=362.13.pdbqt
 OpenBabel04182118313D

 21 22  0  0  1  0  0  0  0  0999 V2000
   -2.5660   -3.1990    0.0080 C   0  0  2  0  0  3  0  0  0  0  0  0
   -3.6400   -2.3450    0.0180 N   0  0  0  0  0  0  0  0  0  0  0  0
   -3.5040   -1.3340    0.0190 H   0  0  0  0  0  0  0  0  0  0  0  0
   -4.8830   -2.8800    0.0270 C   0  0  2  0  0  3  0  0  0  0  0  0
   -6.0480   -2.2140    0.0380 N   0  0  0  0  0  0  0  0  0  0  0  0
   -6.1700   -1.2020    0.0400 H   0  0  0  0  0  0  0  0  0  0  0  0
   -7.0140   -3.1300    0.0440 N   0  0  0  0  0  0  0  0  0  0  0  0
   -6.4670   -4.3680    0.0370 C   0  0  0  0  0  3  0  0  0  0  0  0
   -5.1010   -4.2170    0.0270 C   0  0  0  0  0  0  0  0  0  0  0  0
   -4.0290   -5.0920    0.0170 C   0  0  0  0  0  0  0  0  0  0  0  0
   -4.1930   -6.2980    0.0160 O   0  0  0  0  0  0  0  0  0  0  0  0
   -2.7630   -4.5570    0.0080 N   0  0  0  0  0  0  0  0  0  0  0  0
   -8.0340   -2.9080    0.0520 H   0  0  0  0  0  0  0  0  0  0  0  0
   -1.9840   -5.1590    0.0010 H   0  0  0  0  0  0  0  0  0  0  0  0
   -0.8840   -2.5800   -0.0040 S   0  0  0  0  0  0  0  0  0  0  0  0
   -1.2540   -0.7880    0.0090 C   0  0  0  0  0  2  0  0  0  0  0  0
    0.0240    0.0100    0.0020 C   0  0  0  0  0  0  0  0  0  0  0  0
   -0.0210    1.3600    0.0090 N   0  0  0  0  0  0  0  0  0  0  0  0
    0.8530    1.9060    0.0030 H   0  0  0  0  0  0  0  0  0  0  0  0
   -0.9240    1.8550    0.0190 H   0  0  0  0  0  0  0  0  0  0  0  0
    1.1080   -0.5550   -0.0110 O   0  0  0  0  0  0  0  0  0  0  0  0
  1 15  1  1  0  0  0
  1 12  1  0  0  0  0
  1  2  1  0  0  0  0
  2  3  1  0  0  0  0
  2  4  1  0  0  0  0
  4  9  1  1  0  0  0
  4  5  1  0  0  0  0
  5  6  1  0  0  0  0
  5  7  1  0  0  0  0
  7 13  1  0  0  0  0
  8  7  1  0  0  0  0
  9  8  2  0  0  0  0
 10  9  1  0  0  0  0
 11 10  2  0  0  0  0
 12 10  1  0  0  0  0
 14 12  1  0  0  0  0
 15 16  1  0  0  0  0
 17 16  1  0  0  0  0
 17 18  1  0  0  0  0
 18 20  1  0  0  0  0
 19 18  1  0  0  0  0
 21 17  2  0  0  0  0
M  END
>  <REMARK>
  3 active torsions:
  status: ('A' for Active; 'I' for Inactive)
       I    between atoms: N_1  and  C_2 
    1  A    between atoms: C_2  and  C_4 
    2  A    between atoms: C_4  and  S_5 
    3  A    between atoms: S_5  and  C_6 

>  <TORSDO>
F 3

$$$$
C:\Users\siddh\.mgltools\PyRx\Ligands\ZINC000004245092_uff_E=335.91.pdbqt
 OpenBabel04182118313D

 20 21  0  0  0  0  0  0  0  0999 V2000
    0.0100    0.0030   -0.0010 C   0  0  0  0  0  0  0  0  0  0  0  0
   -1.2090   -0.7230    0.0020 C   0  0  0  0  0  3  0  0  0  0  0  0
   -1.2030   -2.1280   -0.0020 C   0  0  0  0  0  3  0  0  0  0  0  0
    0.0270   -2.7750   -0.0070 C   0  0  0  0  0  0  0  0  0  0  0  0
    0.3850   -4.1910   -0.0100 C   0  0  0  0  0  0  0  0  0  0  0  0
   -0.3940   -5.1310   -0.0210 O   0  0  0  0  0  0  0  0  0  0  0  0
    1.7340   -4.3130   -0.0100 N   0  0  0  0  0  0  0  0  0  0  0  0
    2.2800   -3.0740   -0.0150 C   0  0  0  0  0  0  0  0  0  0  0  0
    3.4800   -2.8470   -0.0300 O   0  0  0  0  0  0  0  0  0  0  0  0
    1.2130   -2.0760   -0.0100 C   0  0  0  0  0  0  0  0  0  0  0  0
    1.2420   -0.6860   -0.0100 C   0  0  0  0  0  3  0  0  0  0  0  0
    2.4700   -5.5630   -0.0380 C   0  0  0  0  0  2  0  0  0  0  0  0
    2.7200   -5.9950   -1.4530 C   0  0  0  0  0  3  0  0  0  0  0  0
    2.2820   -5.2500   -2.4880 O   0  0  0  0  0  0  0  0  0  0  0  0
    2.4440   -5.5290   -3.3680 H   0  0  0  0  0  0  0  0  0  0  0  0
    3.3890   -7.1370   -1.6930 O   0  0  0  0  0  0  0  0  0  0  0  0
    3.6960   -7.6590   -0.9780 H   0  0  0  0  0  0  0  0  0  0  0  0
   -0.0110    1.4170    0.0060 N   0  0  0  0  0  0  0  0  0  0  0  0
    0.8690    1.9520    0.0050 H   0  0  0  0  0  0  0  0  0  0  0  0
   -0.9070    1.9250    0.0160 H   0  0  0  0  0  0  0  0  0  0  0  0
  1  2  1  0  0  0  0
  1 18  1  0  0  0  0
  3  2  2  0  0  0  0
  4  3  1  0  0  0  0
  5  7  1  0  0  0  0
  5  4  1  0  0  0  0
  6  5  2  0  0  0  0
  8  7  1  0  0  0  0
  8 10  1  0  0  0  0
  9  8  2  0  0  0  0
 10 11  1  0  0  0  0
 10  4  2  0  0  0  0
 11  1  2  0  0  0  0
 12  7  1  0  0  0  0
 13 12  1  0  0  0  0
 14 13  1  0  0  0  0
 15 14  1  0  0  0  0
 16 13  1  0  0  0  0
 16 17  1  0  0  0  0
 18 20  1  0  0  0  0
 19 18  1  0  0  0  0
M  END
>  <REMARK>
  5 active torsions:
  status: ('A' for Active; 'I' for Inactive)
    1  A    between atoms: N_1  and  C_2 
    2  A    between atoms: N_8  and  C_9 
    3  A    between atoms: C_9  and  C_10 
    4  A    between atoms: C_10  and  O_11 
    5  A    between atoms: C_10  and  O_12 

>  <TORSDO>
F 5

$$$$
C:\Users\siddh\.mgltools\PyRx\Ligands\ZINC000004235143_uff_E=253.02.pdbqt
 OpenBabel04182118313D

 17 17  0  0  1  0  0  0  0  0999 V2000
   -2.1180   -0.2180    1.3220 N   0  0  0  0  0  0  0  0  0  0  0  0
   -3.2670    0.6540    1.3520 C   0  0  0  0  0  2  0  0  0  0  0  0
   -3.8210    0.4360    2.7840 C   0  0  2  0  0  3  0  0  0  0  0  0
   -2.5660    0.0920    3.6200 C   0  0  0  0  0  2  0  0  0  0  0  0
   -1.7100   -0.5180    2.5730 C   0  0  0  0  0  0  0  0  0  0  0  0
   -0.6760   -1.1140    2.8230 O   0  0  0  0  0  0  0  0  0  0  0  0
   -1.4270   -0.5740    0.0780 C   0  0  1  0  0  3  0  0  0  0  0  0
   -0.0020    0.0230    0.0020 C   0  0  0  0  0  2  0  0  0  0  0  0
   -0.0140    1.5500    0.0440 C   0  0  0  0  0  1  0  0  0  0  0  0
   -1.4150   -2.1000   -0.1470 C   0  0  0  0  0  2  0  0  0  0  0  0
   -0.6280   -2.7580    0.8060 O   0  0  0  0  0  0  0  0  0  0  0  0
   -0.7220   -3.7290    0.6250 H   0  0  0  0  0  0  0  0  0  0  0  0
   -4.7790   -0.7470    2.8160 C   0  0  0  0  0  3  0  0  0  0  0  0
   -5.2860   -1.1580    3.9950 O   0  0  0  0  0  0  0  0  0  0  0  0
   -5.8760   -1.8860    4.0230 H   0  0  0  0  0  0  0  0  0  0  0  0
   -5.1640   -1.3720    1.6850 O   0  0  0  0  0  0  0  0  0  0  0  0
   -4.8200   -1.0970    0.8580 H   0  0  0  0  0  0  0  0  0  0  0  0
  1  2  1  0  0  0  0
  1  5  1  0  0  0  0
  2  3  1  0  0  0  0
  3 13  1  6  0  0  0
  3  4  1  0  0  0  0
  5  6  2  0  0  0  0
  5  4  1  0  0  0  0
  7 10  1  1  0  0  0
  7  1  1  0  0  0  0
  8  9  1  0  0  0  0
  8  7  1  0  0  0  0
 10 11  1  0  0  0  0
 12 11  1  0  0  0  0
 13 14  1  0  0  0  0
 14 15  1  0  0  0  0
 16 13  1  0  0  0  0
 17 16  1  0  0  0  0
M  END
>  <REMARK>
  7 active torsions:
  status: ('A' for Active; 'I' for Inactive)
    1  A    between atoms: C_2  and  C_3 
    2  A    between atoms: C_3  and  C_4 
    3  A    between atoms: C_3  and  N_6 
    4  A    between atoms: C_4  and  O_5 
    5  A    between atoms: C_8  and  C_9 
    6  A    between atoms: C_9  and  O_10 
    7  A    between atoms: C_9  and  O_11 

>  <TORSDO>
F 7

$$$$
C:\Users\siddh\.mgltools\PyRx\Ligands\ZINC000004226898_uff_E=686.29.pdbqt
 OpenBabel04182118313D

 12 13  0  0  1  0  0  0  0  0999 V2000
   -0.0810   -0.0120   -0.1120 O   0  0  0  0  0  0  0  0  0  0  0  0
    0.0450    1.5060    0.0820 S   0  0  0  0  0  0  0  0  0  0  0  0
   -0.8420    2.1210   -1.0100 O   0  0  0  0  0  0  0  0  0  0  0  0
   -0.4250    2.0080    1.7570 C   0  0  0  0  0  2  0  0  0  0  0  0
    0.9830    2.1610    2.3370 C   0  0  2  0  0  3  0  0  0  0  0  0
    1.2200    3.0880    3.8980 S   0  0  0  0  0  0  0  0  0  0  0  0
    2.8740    3.4200    3.2530 C   0  0  0  0  0  0  0  0  0  0  0  0
    3.9880    3.7150    4.1090 S   0  0  0  0  0  0  0  0  0  0  0  0
    3.0430    3.1890    1.8740 N   0  0  0  0  0  0  0  0  0  0  0  0
    1.7830    2.9090    1.2640 C   0  0  1  0  0  3  0  0  0  0  0  0
    1.7700    2.0490   -0.0000 C   0  0  0  0  0  2  0  0  0  0  0  0
    3.9050    3.2160    1.4000 H   0  0  0  0  0  0  0  0  0  0  0  0
  1  2  2  0  0  0  0
  2  4  1  0  0  0  0
  3  2  2  0  0  0  0
  5  4  1  6  0  0  0
  5  6  1  0  0  0  0
  7  6  1  0  0  0  0
  7  8  2  0  0  0  0
  9  7  1  0  0  0  0
 10 11  1  6  0  0  0
 10  9  1  0  0  0  0
 10  5  1  0  0  0  0
 11  2  1  0  0  0  0
 12  9  1  0  0  0  0
M  END
>  <REMARK>
  0 active torsions:
  status: ('A' for Active; 'I' for Inactive)

>  <TORSDO>
F 0

$$$$
C:\Users\siddh\.mgltools\PyRx\Ligands\ZINC000004226897_uff_E=750.89.pdbqt
 OpenBabel04182118313D

 12 13  0  0  1  0  0  0  0  0999 V2000
   -0.0540   -0.0340   -0.0730 O   0  0  0  0  0  0  0  0  0  0  0  0
    0.0350    1.4920    0.0820 S   0  0  0  0  0  0  0  0  0  0  0  0
   -0.8640    2.0810   -1.0150 O   0  0  0  0  0  0  0  0  0  0  0  0
   -0.4010    2.0380    1.7190 C   0  0  0  0  0  2  0  0  0  0  0  0
    0.3860    3.3500    1.8300 C   0  0  1  0  0  3  0  0  0  0  0  0
    0.8200    3.5880    3.1750 N   0  0  0  0  0  0  0  0  0  0  0  0
    2.2060    3.7240    3.3250 C   0  0  0  0  0  0  0  0  0  0  0  0
    2.8020    3.9030    4.6170 S   0  0  0  0  0  0  0  0  0  0  0  0
    3.1860    3.6390    1.8410 S   0  0  0  0  0  0  0  0  0  0  0  0
    1.6430    3.3640    0.8840 C   0  0  1  0  0  3  0  0  0  0  0  0
    1.7120    2.0930    0.0200 C   0  0  0  0  0  2  0  0  0  0  0  0
    0.1950    3.6500    3.9320 H   0  0  0  0  0  0  0  0  0  0  0  0
  1  2  2  0  0  0  0
  2  4  1  0  0  0  0
  3  2  2  0  0  0  0
  5  4  1  1  0  0  0
  5  6  1  0  0  0  0
  6  7  1  0  0  0  0
  6 12  1  0  0  0  0
  7  8  2  0  0  0  0
  9  7  1  0  0  0  0
 10 11  1  1  0  0  0
 10  5  1  0  0  0  0
 10  9  1  0  0  0  0
 11  2  1  0  0  0  0
M  END
>  <REMARK>
  0 active torsions:
  status: ('A' for Active; 'I' for Inactive)

>  <TORSDO>
F 0

$$$$
C:\Users\siddh\.mgltools\PyRx\Ligands\ZINC000004223091_uff_E=110.81.pdbqt
 OpenBabel04182118313D

 22 22  0  0  1  0  0  0  0  0999 V2000
   -0.7320   -3.4230    1.2060 C   0  0  0  0  0  2  0  0  0  0  0  0
   -0.4090   -2.5590   -0.0260 C   0  0  2  0  0  3  0  0  0  0  0  0
    1.0190   -2.0840   -0.0010 C   0  0  0  0  0  0  0  0  0  0  0  0
    1.2010   -0.7590    0.0060 N   0  0  0  0  0  0  0  0  0  0  0  0
    1.9650   -2.8570   -0.0030 O   0  0  0  0  0  0  0  0  0  0  0  0
    0.0010   -0.0410   -0.0110 C   0  0  1  0  0  3  0  0  0  0  0  0
    2.1320   -0.3160    0.0140 H   0  0  0  0  0  0  0  0  0  0  0  0
   -0.0350    1.2410   -0.0050 N   0  0  0  0  0  0  0  0  0  0  0  0
   -1.4750   -1.0380   -0.0540 S   0  0  0  0  0  0  0  0  0  0  0  0
    0.8330    1.7950    0.0160 H   0  0  0  0  0  0  0  0  0  0  0  0
   -0.9360    1.7190   -0.0200 H   0  0  0  0  0  0  0  0  0  0  0  0
   -2.1240   -4.0060    1.1460 C   0  0  0  0  0  0  0  0  0  0  0  0
   -2.8410   -3.7850    0.1770 O   0  0  0  0  0  0  0  0  0  0  0  0
   -2.5800   -4.7850    2.1610 N   0  0  0  0  0  0  0  0  0  0  0  0
   -1.9700   -4.9680    2.9730 H   0  0  0  0  0  0  0  0  0  0  0  0
   -3.9110   -5.3560    2.1060 C   0  0  0  0  0  2  0  0  0  0  0  0
   -4.2190   -6.1910    3.3500 C   0  0  0  0  0  2  0  0  0  0  0  0
   -5.6020   -6.7840    3.2970 C   0  0  0  0  0  3  0  0  0  0  0  0
   -6.4150   -6.5600    2.2440 O   0  0  0  0  0  0  0  0  0  0  0  0
   -7.2730   -6.9360    2.2260 H   0  0  0  0  0  0  0  0  0  0  0  0
   -6.0350   -7.5490    4.3160 O   0  0  0  0  0  0  0  0  0  0  0  0
   -5.4770   -7.7090    5.0510 H   0  0  0  0  0  0  0  0  0  0  0  0
  2  3  1  0  0  0  0
  2  1  1  1  0  0  0
  3  4  1  0  0  0  0
  4  7  1  0  0  0  0
  5  3  2  0  0  0  0
  6  8  1  6  0  0  0
  6  4  1  0  0  0  0
  8 10  1  0  0  0  0
  9  2  1  0  0  0  0
  9  6  1  0  0  0  0
 11  8  1  0  0  0  0
 12  1  1  0  0  0  0
 12 14  1  0  0  0  0
 13 12  2  0  0  0  0
 14 15  1  0  0  0  0
 16 14  1  0  0  0  0
 16 17  1  0  0  0  0
 18 17  1  0  0  0  0
 18 21  1  0  0  0  0
 19 18  1  0  0  0  0
 20 19  1  0  0  0  0
 21 22  1  0  0  0  0
M  END
>  <REMARK>
  7 active torsions:
  status: ('A' for Active; 'I' for Inactive)
    1  A    between atoms: C_7  and  C_8 
    2  A    between atoms: C_8  and  C_9 
       I    between atoms: C_9  and  N_11 
    3  A    between atoms: N_11  and  C_12 
    4  A    between atoms: C_12  and  C_13 
    5  A    between atoms: C_13  and  C_14 
    6  A    between atoms: C_14  and  O_15 
    7  A    between atoms: C_14  and  O_16 

>  <TORSDO>
F 7

$$$$
C:\Users\siddh\.mgltools\PyRx\Ligands\ZINC000004223090_uff_E=110.81.pdbqt
 OpenBabel04182118313D

 22 22  0  0  1  0  0  0  0  0999 V2000
   -0.7320   -3.4230    1.2060 C   0  0  0  0  0  2  0  0  0  0  0  0
   -0.4090   -2.5590   -0.0260 C   0  0  2  0  0  3  0  0  0  0  0  0
    1.0190   -2.0840   -0.0010 C   0  0  0  0  0  0  0  0  0  0  0  0
    1.2010   -0.7590    0.0060 N   0  0  0  0  0  0  0  0  0  0  0  0
    1.9650   -2.8570   -0.0030 O   0  0  0  0  0  0  0  0  0  0  0  0
    0.0010   -0.0410   -0.0110 C   0  0  1  0  0  3  0  0  0  0  0  0
    2.1320   -0.3160    0.0140 H   0  0  0  0  0  0  0  0  0  0  0  0
   -0.0350    1.2410   -0.0050 N   0  0  0  0  0  0  0  0  0  0  0  0
   -1.4750   -1.0380   -0.0540 S   0  0  0  0  0  0  0  0  0  0  0  0
    0.8330    1.7950    0.0160 H   0  0  0  0  0  0  0  0  0  0  0  0
   -0.9360    1.7190   -0.0200 H   0  0  0  0  0  0  0  0  0  0  0  0
   -2.1240   -4.0060    1.1460 C   0  0  0  0  0  0  0  0  0  0  0  0
   -2.8410   -3.7850    0.1770 O   0  0  0  0  0  0  0  0  0  0  0  0
   -2.5800   -4.7850    2.1610 N   0  0  0  0  0  0  0  0  0  0  0  0
   -1.9700   -4.9680    2.9730 H   0  0  0  0  0  0  0  0  0  0  0  0
   -3.9110   -5.3560    2.1060 C   0  0  0  0  0  2  0  0  0  0  0  0
   -4.2190   -6.1910    3.3500 C   0  0  0  0  0  2  0  0  0  0  0  0
   -5.6020   -6.7840    3.2970 C   0  0  0  0  0  3  0  0  0  0  0  0
   -6.4150   -6.5600    2.2440 O   0  0  0  0  0  0  0  0  0  0  0  0
   -7.2730   -6.9360    2.2260 H   0  0  0  0  0  0  0  0  0  0  0  0
   -6.0350   -7.5490    4.3160 O   0  0  0  0  0  0  0  0  0  0  0  0
   -5.4770   -7.7090    5.0510 H   0  0  0  0  0  0  0  0  0  0  0  0
  2  3  1  0  0  0  0
  2  1  1  1  0  0  0
  3  4  1  0  0  0  0
  4  7  1  0  0  0  0
  5  3  2  0  0  0  0
  6  8  1  6  0  0  0
  6  4  1  0  0  0  0
  8 10  1  0  0  0  0
  9  2  1  0  0  0  0
  9  6  1  0  0  0  0
 11  8  1  0  0  0  0
 12  1  1  0  0  0  0
 12 14  1  0  0  0  0
 13 12  2  0  0  0  0
 14 15  1  0  0  0  0
 16 14  1  0  0  0  0
 16 17  1  0  0  0  0
 18 17  1  0  0  0  0
 18 21  1  0  0  0  0
 19 18  1  0  0  0  0
 20 19  1  0  0  0  0
 21 22  1  0  0  0  0
M  END
>  <REMARK>
  7 active torsions:
  status: ('A' for Active; 'I' for Inactive)
    1  A    between atoms: C_7  and  C_8 
    2  A    between atoms: C_8  and  C_9 
       I    between atoms: C_9  and  N_11 
    3  A    between atoms: N_11  and  C_12 
    4  A    between atoms: C_12  and  C_13 
    5  A    between atoms: C_13  and  C_14 
    6  A    between atoms: C_14  and  O_15 
    7  A    between atoms: C_14  and  O_16 

>  <TORSDO>
F 7

$$$$
C:\Users\siddh\.mgltools\PyRx\Ligands\ZINC000004207178_uff_E=366.98.pdbqt
 OpenBabel04182118313D

 23 24  0  0  1  0  0  0  0  0999 V2000
    0.0080    1.5150   -0.0380 C   0  0  0  0  0  1  0  0  0  0  0  0
    0.0030    0.0130    0.0070 C   0  0  2  0  0  3  0  0  0  0  0  0
   -0.0330   -0.6650   -1.1790 N   0  0  0  0  0  0  0  0  0  0  0  0
   -0.0620   -0.1570   -2.0630 H   0  0  0  0  0  0  0  0  0  0  0  0
   -0.0290   -2.0160   -1.1680 C   0  0  1  0  0  3  0  0  0  0  0  0
   -0.0270   -2.8150   -2.2480 N   0  0  0  0  0  0  0  0  0  0  0  0
   -0.0420   -2.5590   -3.2360 H   0  0  0  0  0  0  0  0  0  0  0  0
   -0.0010   -4.0490   -1.6860 C   0  0  1  0  0  3  0  0  0  0  0  0
    0.0340   -5.2500   -2.4250 N   0  0  0  0  0  0  0  0  0  0  0  0
    0.0090   -3.9970   -0.3350 N   0  0  0  0  0  0  0  0  0  0  0  0
    0.0250   -4.7840    0.3140 H   0  0  0  0  0  0  0  0  0  0  0  0
   -0.0070   -2.7110   -0.0330 N   0  0  0  0  0  0  0  0  0  0  0  0
    0.0090   -2.1320    1.1940 C   0  0  0  0  0  0  0  0  0  0  0  0
    0.0400   -2.9840    2.4370 C   0  0  0  0  0  1  0  0  0  0  0  0
    0.0240   -0.7080    1.2480 C   0  0  0  0  0  0  0  0  0  0  0  0
    0.0400   -5.2240   -3.4550 H   0  0  0  0  0  0  0  0  0  0  0  0
    0.0700   -6.1570   -1.9380 H   0  0  0  0  0  0  0  0  0  0  0  0
    0.0710    0.0260    2.5800 C   0  0  0  0  0  2  0  0  0  0  0  0
    1.4440    0.5570    2.8890 C   0  0  0  0  0  3  0  0  0  0  0  0
    2.4800    0.3320    2.0560 O   0  0  0  0  0  0  0  0  0  0  0  0
    3.3290    0.6700    2.2630 H   0  0  0  0  0  0  0  0  0  0  0  0
    1.6530    1.2240    4.0400 O   0  0  0  0  0  0  0  0  0  0  0  0
    0.9380    1.3840    4.6250 H   0  0  0  0  0  0  0  0  0  0  0  0
  2  1  1  1  0  0  0
  2 15  1  0  0  0  0
  3  5  1  0  0  0  0
  3  2  1  0  0  0  0
  4  3  1  0  0  0  0
  5  6  1  6  0  0  0
  5 12  1  0  0  0  0
  6  8  1  0  0  0  0
  7  6  1  0  0  0  0
  8  9  1  6  0  0  0
  8 10  1  0  0  0  0
  9 17  1  0  0  0  0
 10 12  1  0  0  0  0
 10 11  1  0  0  0  0
 12 13  1  0  0  0  0
 13 15  2  0  0  0  0
 13 14  1  0  0  0  0
 15 18  1  0  0  0  0
 16  9  1  0  0  0  0
 18 19  1  0  0  0  0
 19 22  1  0  0  0  0
 20 21  1  0  0  0  0
 20 19  1  0  0  0  0
 22 23  1  0  0  0  0
M  END
>  <REMARK>
  4 active torsions:
  status: ('A' for Active; 'I' for Inactive)
       I    between atoms: C_8  and  N_9 
    1  A    between atoms: C_15  and  C_16 
    2  A    between atoms: C_16  and  C_17 
    3  A    between atoms: C_17  and  O_18 
    4  A    between atoms: C_17  and  O_19 

>  <TORSDO>
F 4

$$$$
C:\Users\siddh\.mgltools\PyRx\Ligands\ZINC000004207129_uff_E=630.33.pdbqt
 OpenBabel04182118313D

 14 14  0  0  1  0  0  0  0  0999 V2000
    0.1370   -0.0320    0.0980 O   0  0  0  0  0  0  0  0  0  0  0  0
   -0.0070    1.3070    0.0680 C   0  0  0  0  0  3  0  0  0  0  0  0
    0.4040   -0.9280    0.1520 H   0  0  0  0  0  0  0  0  0  0  0  0
    1.0890    2.0880    0.0140 O   0  0  0  0  0  0  0  0  0  0  0  0
    1.0000    3.0210   -0.0070 H   0  0  0  0  0  0  0  0  0  0  0  0
   -1.3690    1.9440    0.0820 C   0  0  0  0  0  2  0  0  0  0  0  0
   -2.6800    0.6710    0.1410 S   0  0  0  0  0  0  0  0  0  0  0  0
   -4.1460    1.7640    0.0020 C   0  0  2  0  0  3  0  0  0  0  0  0
   -5.4150    0.8920    0.1040 C   0  0  0  0  0  2  0  0  0  0  0  0
   -6.6450    1.9390   -0.6700 S   0  0  0  0  0  0  0  0  0  0  0  0
   -5.6150    3.2180   -1.3740 C   0  0  0  0  0  2  0  0  0  0  0  0
   -7.7050    2.4690    0.3060 O   0  0  0  0  0  0  0  0  0  0  0  0
   -7.4330    1.1830   -1.7510 O   0  0  0  0  0  0  0  0  0  0  0  0
   -4.2460    2.5220   -1.3490 C   0  0  0  0  0  2  0  0  0  0  0  0
  1  3  1  0  0  0  0
  2  6  1  0  0  0  0
  2  1  1  0  0  0  0
  4  2  1  0  0  0  0
  5  4  1  0  0  0  0
  6  7  1  0  0  0  0
  8  9  1  0  0  0  0
  8  7  1  6  0  0  0
 10  9  1  0  0  0  0
 10 12  2  0  0  0  0
 11 14  1  0  0  0  0
 11 10  1  0  0  0  0
 13 10  2  0  0  0  0
 14  8  1  0  0  0  0
M  END
>  <REMARK>
  4 active torsions:
  status: ('A' for Active; 'I' for Inactive)
    1  A    between atoms: C_2  and  O_3 
    2  A    between atoms: C_2  and  C_4 
    3  A    between atoms: C_4  and  S_5 
    4  A    between atoms: S_5  and  C_6 

>  <TORSDO>
F 4

$$$$
C:\Users\siddh\.mgltools\PyRx\Ligands\ZINC000004207127_uff_E=625.08.pdbqt
 OpenBabel04182118313D

 14 14  0  0  1  0  0  0  0  0999 V2000
    0.1230   -0.0580   -0.0490 O   0  0  0  0  0  0  0  0  0  0  0  0
   -0.0150    1.2800   -0.0310 C   0  0  0  0  0  3  0  0  0  0  0  0
    0.3820   -0.9580   -0.0820 H   0  0  0  0  0  0  0  0  0  0  0  0
    1.0850    2.0600   -0.0210 O   0  0  0  0  0  0  0  0  0  0  0  0
    0.9990    2.9930   -0.0090 H   0  0  0  0  0  0  0  0  0  0  0  0
   -1.3740    1.9230   -0.0120 C   0  0  0  0  0  2  0  0  0  0  0  0
   -2.6930    0.6550   -0.0070 S   0  0  0  0  0  0  0  0  0  0  0  0
   -4.1310    1.7850    0.0880 C   0  0  1  0  0  3  0  0  0  0  0  0
   -5.4220    0.9670   -0.1100 C   0  0  0  0  0  2  0  0  0  0  0  0
   -6.6490    2.0940    0.5430 S   0  0  0  0  0  0  0  0  0  0  0  0
   -5.6160    3.2500    1.4390 C   0  0  0  0  0  2  0  0  0  0  0  0
   -7.6790    1.3920    1.4420 O   0  0  0  0  0  0  0  0  0  0  0  0
   -7.4720    2.7710   -0.5620 O   0  0  0  0  0  0  0  0  0  0  0  0
   -4.2770    2.4940    1.4590 C   0  0  0  0  0  2  0  0  0  0  0  0
  1  2  1  0  0  0  0
  2  4  1  0  0  0  0
  2  6  1  0  0  0  0
  3  1  1  0  0  0  0
  4  5  1  0  0  0  0
  6  7  1  0  0  0  0
  8  7  1  1  0  0  0
  8 14  1  0  0  0  0
  9  8  1  0  0  0  0
  9 10  1  0  0  0  0
 10 11  1  0  0  0  0
 10 12  2  0  0  0  0
 11 14  1  0  0  0  0
 13 10  2  0  0  0  0
M  END
>  <REMARK>
  4 active torsions:
  status: ('A' for Active; 'I' for Inactive)
    1  A    between atoms: C_2  and  O_3 
    2  A    between atoms: C_2  and  C_4 
    3  A    between atoms: C_4  and  S_5 
    4  A    between atoms: S_5  and  C_6 

>  <TORSDO>
F 4

$$$$
C:\Users\siddh\.mgltools\PyRx\Ligands\ZINC000004206968_uff_E=339.67.pdbqt
 OpenBabel04182118313D

 23 23  0  0  1  0  0  0  0  0999 V2000
    1.7300   -3.1470   -0.0270 C   0  0  2  0  0  3  0  0  0  0  0  0
    0.7380   -2.0180   -0.0200 C   0  0  0  0  0  0  0  0  0  0  0  0
   -0.6360   -2.1340    0.0510 C   0  0  0  0  0  3  0  0  0  0  0  0
   -1.1220   -0.8420    0.0290 C   0  0  0  0  0  0  0  0  0  0  0  0
   -0.0130   -0.0140   -0.0360 C   0  0  0  0  0  0  0  0  0  0  0  0
    0.0010    1.4800   -0.0490 C   0  0  0  0  0  1  0  0  0  0  0  0
    1.0760   -0.7470   -0.0740 O   0  0  0  0  0  0  0  0  0  0  0  0
   -2.5450   -0.4570    0.0670 C   0  0  0  0  0  3  0  0  0  0  0  0
   -3.4990   -1.4060    0.1070 O   0  0  0  0  0  0  0  0  0  0  0  0
   -4.4030   -1.1620    0.1320 H   0  0  0  0  0  0  0  0  0  0  0  0
   -2.9040    0.8410    0.0430 O   0  0  0  0  0  0  0  0  0  0  0  0
   -2.2470    1.5080    0.0150 H   0  0  0  0  0  0  0  0  0  0  0  0
    2.6730   -2.9620    1.0000 O   0  0  0  0  0  0  0  0  0  0  0  0
    3.1710   -2.1230    0.8190 H   0  0  0  0  0  0  0  0  0  0  0  0
    2.3840   -3.3220   -1.4250 C   0  0  1  0  0  3  0  0  0  0  0  0
    2.9130   -2.1180   -1.9290 O   0  0  0  0  0  0  0  0  0  0  0  0
    3.6280   -1.8020   -1.3260 H   0  0  0  0  0  0  0  0  0  0  0  0
    3.4230   -4.4770   -1.4640 C   0  0  2  0  0  3  0  0  0  0  0  0
    4.4740   -4.2670   -0.5510 O   0  0  0  0  0  0  0  0  0  0  0  0
    5.0010   -3.4850   -0.8570 H   0  0  0  0  0  0  0  0  0  0  0  0
    3.9770   -4.7030   -2.8800 C   0  0  0  0  0  2  0  0  0  0  0  0
    4.8680   -5.7840   -2.8680 O   0  0  0  0  0  0  0  0  0  0  0  0
    5.2580   -5.8290   -3.7800 H   0  0  0  0  0  0  0  0  0  0  0  0
  1  2  1  0  0  0  0
  1 13  1  1  0  0  0
  2  3  2  0  0  0  0
  4  3  1  0  0  0  0
  4  8  1  0  0  0  0
  5  4  2  0  0  0  0
  6  5  1  0  0  0  0
  7  5  1  0  0  0  0
  7  2  1  0  0  0  0
  8  9  1  0  0  0  0
  9 10  1  0  0  0  0
 11  8  1  0  0  0  0
 12 11  1  0  0  0  0
 14 13  1  0  0  0  0
 15 16  1  1  0  0  0
 15  1  1  0  0  0  0
 16 17  1  0  0  0  0
 18 21  1  6  0  0  0
 18 15  1  0  0  0  0
 18 19  1  0  0  0  0
 20 19  1  0  0  0  0
 21 22  1  0  0  0  0
 23 22  1  0  0  0  0
M  END
>  <REMARK>
  11 active torsions:
  status: ('A' for Active; 'I' for Inactive)
    1  A    between atoms: C_3  and  C_4 
    2  A    between atoms: C_4  and  O_5 
    3  A    between atoms: C_4  and  O_6 
    4  A    between atoms: C_8  and  C_9 
    5  A    between atoms: C_9  and  O_10 
    6  A    between atoms: C_9  and  C_11 
    7  A    between atoms: C_11  and  O_12 
    8  A    between atoms: C_11  and  C_13 
    9  A    between atoms: C_13  and  O_14 
   10  A    between atoms: C_13  and  C_15 
   11  A    between atoms: C_15  and  O_16 

>  <TORSDO>
F 11

$$$$
C:\Users\siddh\.mgltools\PyRx\Ligands\ZINC000004206965_uff_E=333.92.pdbqt
 OpenBabel04182118313D

 23 23  0  0  1  0  0  0  0  0999 V2000
    1.7240   -3.1680   -0.0120 C   0  0  2  0  0  3  0  0  0  0  0  0
    0.7490   -2.0230   -0.0060 C   0  0  0  0  0  0  0  0  0  0  0  0
   -0.6250   -2.1330    0.0510 C   0  0  0  0  0  3  0  0  0  0  0  0
   -1.1060   -0.8400    0.0260 C   0  0  0  0  0  0  0  0  0  0  0  0
    0.0070   -0.0160   -0.0240 C   0  0  0  0  0  0  0  0  0  0  0  0
    0.0200    1.4790   -0.0280 C   0  0  0  0  0  1  0  0  0  0  0  0
    1.0950   -0.7530   -0.0560 O   0  0  0  0  0  0  0  0  0  0  0  0
   -2.5280   -0.4510    0.0470 C   0  0  0  0  0  3  0  0  0  0  0  0
   -3.4850   -1.3980    0.0660 O   0  0  0  0  0  0  0  0  0  0  0  0
   -4.3890   -1.1510    0.0790 H   0  0  0  0  0  0  0  0  0  0  0  0
   -2.8830    0.8480    0.0270 O   0  0  0  0  0  0  0  0  0  0  0  0
   -2.2240    1.5140    0.0140 H   0  0  0  0  0  0  0  0  0  0  0  0
    2.7290   -2.9370    0.9440 O   0  0  0  0  0  0  0  0  0  0  0  0
    3.2690   -2.1640    0.6280 H   0  0  0  0  0  0  0  0  0  0  0  0
    2.2980   -3.4070   -1.4330 C   0  0  2  0  0  3  0  0  0  0  0  0
    1.2360   -3.6350   -2.3310 O   0  0  0  0  0  0  0  0  0  0  0  0
    0.7640   -4.4600   -2.0400 H   0  0  0  0  0  0  0  0  0  0  0  0
    3.2980   -4.5960   -1.4830 C   0  0  2  0  0  3  0  0  0  0  0  0
    4.3870   -4.3840   -0.6190 O   0  0  0  0  0  0  0  0  0  0  0  0
    4.8360   -3.5450   -0.9030 H   0  0  0  0  0  0  0  0  0  0  0  0
    3.8100   -4.8570   -2.9090 C   0  0  0  0  0  2  0  0  0  0  0  0
    4.6650   -5.9660   -2.9030 O   0  0  0  0  0  0  0  0  0  0  0  0
    4.9450   -6.1040   -3.8440 H   0  0  0  0  0  0  0  0  0  0  0  0
  1  2  1  0  0  0  0
  1 13  1  1  0  0  0
  2  3  2  0  0  0  0
  4  8  1  0  0  0  0
  4  3  1  0  0  0  0
  5  4  2  0  0  0  0
  6  5  1  0  0  0  0
  7  5  1  0  0  0  0
  7  2  1  0  0  0  0
  8  9  1  0  0  0  0
  9 10  1  0  0  0  0
 11  8  1  0  0  0  0
 12 11  1  0  0  0  0
 14 13  1  0  0  0  0
 15 16  1  6  0  0  0
 15  1  1  0  0  0  0
 16 17  1  0  0  0  0
 18 21  1  6  0  0  0
 18 15  1  0  0  0  0
 18 19  1  0  0  0  0
 20 19  1  0  0  0  0
 21 22  1  0  0  0  0
 23 22  1  0  0  0  0
M  END
>  <REMARK>
  11 active torsions:
  status: ('A' for Active; 'I' for Inactive)
    1  A    between atoms: C_3  and  C_4 
    2  A    between atoms: C_4  and  O_5 
    3  A    between atoms: C_4  and  O_6 
    4  A    between atoms: C_8  and  C_9 
    5  A    between atoms: C_9  and  O_10 
    6  A    between atoms: C_9  and  C_11 
    7  A    between atoms: C_11  and  O_12 
    8  A    between atoms: C_11  and  C_13 
    9  A    between atoms: C_13  and  O_14 
   10  A    between atoms: C_13  and  C_15 
   11  A    between atoms: C_15  and  O_16 

>  <TORSDO>
F 11

$$$$
C:\Users\siddh\.mgltools\PyRx\Ligands\ZINC000004205577_uff_E=233.38.pdbqt
 OpenBabel04182118313D

 17 17  0  0  0  0  0  0  0  0999 V2000
   -0.0220    1.5270    0.0090 C   0  0  0  0  0  1  0  0  0  0  0  0
   -0.0190    0.0100    0.0020 C   0  0  0  0  0  0  0  0  0  0  0  0
   -1.4240   -0.5570   -0.0590 C   0  0  0  0  0  1  0  0  0  0  0  0
    0.8000   -0.5040   -1.0860 N   0  0  0  0  0  0  0  0  0  0  0  0
    1.8250   -1.2090   -0.5780 C   0  0  0  0  0  0  0  0  0  0  0  0
    2.6740   -1.7540   -1.2630 O   0  0  0  0  0  0  0  0  0  0  0  0
    1.8010   -1.2380    0.7560 N   0  0  0  0  0  0  0  0  0  0  0  0
    0.7400   -0.5390    1.1820 C   0  0  0  0  0  0  0  0  0  0  0  0
    0.4440   -0.3790    2.3590 O   0  0  0  0  0  0  0  0  0  0  0  0
    0.6310   -0.3560   -2.0930 H   0  0  0  0  0  0  0  0  0  0  0  0
    2.7640   -1.9060    1.5860 C   0  0  0  0  0  2  0  0  0  0  0  0
    3.9040   -0.9580    1.9150 C   0  0  0  0  0  2  0  0  0  0  0  0
    4.9070   -1.6500    2.7700 C   0  0  0  0  0  3  0  0  0  0  0  0
    4.7290   -2.9310    3.1350 O   0  0  0  0  0  0  0  0  0  0  0  0
    5.3670   -3.3570    3.6730 H   0  0  0  0  0  0  0  0  0  0  0  0
    6.0000   -0.9950    3.1830 O   0  0  0  0  0  0  0  0  0  0  0  0
    6.1330   -0.1020    2.9340 H   0  0  0  0  0  0  0  0  0  0  0  0
  2  1  1  0  0  0  0
  2  8  1  0  0  0  0
  3  2  1  0  0  0  0
  4  5  1  0  0  0  0
  4  2  1  0  0  0  0
  5  7  1  0  0  0  0
  6  5  2  0  0  0  0
  7  8  1  0  0  0  0
  7 11  1  0  0  0  0
  8  9  2  0  0  0  0
 10  4  1  0  0  0  0
 11 12  1  0  0  0  0
 12 13  1  0  0  0  0
 13 14  1  0  0  0  0
 13 16  1  0  0  0  0
 14 15  1  0  0  0  0
 17 16  1  0  0  0  0
M  END
>  <REMARK>
  5 active torsions:
  status: ('A' for Active; 'I' for Inactive)
    1  A    between atoms: N_7  and  C_8 
    2  A    between atoms: C_8  and  C_9 
    3  A    between atoms: C_9  and  C_10 
    4  A    between atoms: C_10  and  O_11 
    5  A    between atoms: C_10  and  O_12 

>  <TORSDO>
F 5

$$$$
C:\Users\siddh\.mgltools\PyRx\Ligands\ZINC000004169646_uff_E=272.93.pdbqt
 OpenBabel04182118313D

 16 16  0  0  1  0  0  0  0  0999 V2000
   -2.2630   -4.2360   -0.0510 N   0  0  0  0  0  0  0  0  0  0  0  0
   -2.3920   -5.0530   -1.2270 C   0  0  0  0  0  2  0  0  0  0  0  0
   -1.8140   -6.4070   -0.7400 C   0  0  2  0  0  3  0  0  0  0  0  0
   -2.1980   -6.4480    0.7590 C   0  0  0  0  0  2  0  0  0  0  0  0
   -2.1990   -4.9930    1.0590 C   0  0  0  0  0  0  0  0  0  0  0  0
   -2.2790   -4.5330    2.1870 O   0  0  0  0  0  0  0  0  0  0  0  0
   -2.4830   -2.8000   -0.0400 C   0  0  0  0  0  2  0  0  0  0  0  0
   -1.1290   -2.0900    0.0100 C   0  0  0  0  0  2  0  0  0  0  0  0
   -1.2710   -0.5710    0.0140 C   0  0  0  0  0  2  0  0  0  0  0  0
    0.0240   -0.0090    0.0210 O   0  0  0  0  0  0  0  0  0  0  0  0
   -0.0720    1.3960    0.0160 C   0  0  0  0  0  1  0  0  0  0  0  0
   -0.2940   -6.4180   -0.8520 C   0  0  0  0  0  3  0  0  0  0  0  0
    0.3990   -7.4720   -0.3760 O   0  0  0  0  0  0  0  0  0  0  0  0
    1.3340   -7.4860   -0.4410 H   0  0  0  0  0  0  0  0  0  0  0  0
    0.3760   -5.4050   -1.4390 O   0  0  0  0  0  0  0  0  0  0  0  0
   -0.0920   -4.6660   -1.7740 H   0  0  0  0  0  0  0  0  0  0  0  0
  1  7  1  0  0  0  0
  1  5  1  0  0  0  0
  2  3  1  0  0  0  0
  2  1  1  0  0  0  0
  3 12  1  1  0  0  0
  3  4  1  0  0  0  0
  4  5  1  0  0  0  0
  5  6  2  0  0  0  0
  7  8  1  0  0  0  0
  8  9  1  0  0  0  0
  9 10  1  0  0  0  0
 11 10  1  0  0  0  0
 12 13  1  0  0  0  0
 14 13  1  0  0  0  0
 15 12  1  0  0  0  0
 16 15  1  0  0  0  0
M  END
>  <REMARK>
  7 active torsions:
  status: ('A' for Active; 'I' for Inactive)
    1  A    between atoms: O_2  and  C_3 
    2  A    between atoms: C_3  and  C_4 
    3  A    between atoms: C_4  and  C_5 
    4  A    between atoms: C_5  and  N_6 
    5  A    between atoms: C_8  and  C_9 
    6  A    between atoms: C_9  and  O_10 
    7  A    between atoms: C_9  and  O_11 

>  <TORSDO>
F 7

$$$$
C:\Users\siddh\.mgltools\PyRx\Ligands\ZINC000004169248_uff_E=226.00.pdbqt
 OpenBabel04182118313D

 17 17  0  0  1  0  0  0  0  0999 V2000
    0.7540   -1.9200   -1.2650 N   0  0  0  0  0  0  0  0  0  0  0  0
    1.7120   -2.6820   -0.7300 C   0  0  0  0  0  0  0  0  0  0  0  0
    2.6960   -2.2430   -0.1560 O   0  0  0  0  0  0  0  0  0  0  0  0
    1.4710   -3.9920   -0.8940 N   0  0  0  0  0  0  0  0  0  0  0  0
    0.2130   -4.1800   -1.6080 C   0  0  2  0  0  3  0  0  0  0  0  0
   -0.1710   -2.7330   -1.8000 C   0  0  0  0  0  0  0  0  0  0  0  0
   -1.1810   -2.3390   -2.3650 O   0  0  0  0  0  0  0  0  0  0  0  0
    2.0900   -4.7430   -0.5560 H   0  0  0  0  0  0  0  0  0  0  0  0
   -0.8020   -4.9410   -0.7500 C   0  0  0  0  0  2  0  0  0  0  0  0
   -0.3860   -6.3700   -0.5270 C   0  0  0  0  0  3  0  0  0  0  0  0
    0.7510   -6.8560   -1.0650 O   0  0  0  0  0  0  0  0  0  0  0  0
    0.9960   -7.7480   -0.9160 H   0  0  0  0  0  0  0  0  0  0  0  0
   -1.1650   -7.1800    0.2120 O   0  0  0  0  0  0  0  0  0  0  0  0
   -1.9560   -6.8520    0.5910 H   0  0  0  0  0  0  0  0  0  0  0  0
    0.7160   -0.4740   -1.2590 C   0  0  0  0  0  2  0  0  0  0  0  0
    0.0030    0.0200   -0.0030 C   0  0  0  0  0  2  0  0  0  0  0  0
   -0.0260    1.5410    0.0210 C   0  0  0  0  0  1  0  0  0  0  0  0
  1 15  1  0  0  0  0
  1  2  1  0  0  0  0
  2  3  2  0  0  0  0
  4  2  1  0  0  0  0
  4  8  1  0  0  0  0
  5  4  1  0  0  0  0
  5  9  1  1  0  0  0
  6  5  1  0  0  0  0
  6  1  1  0  0  0  0
  7  6  2  0  0  0  0
  9 10  1  0  0  0  0
 10 13  1  0  0  0  0
 11 12  1  0  0  0  0
 11 10  1  0  0  0  0
 13 14  1  0  0  0  0
 15 16  1  0  0  0  0
 16 17  1  0  0  0  0
M  END
>  <REMARK>
  6 active torsions:
  status: ('A' for Active; 'I' for Inactive)
    1  A    between atoms: C_2  and  C_3 
    2  A    between atoms: C_3  and  N_4 
    3  A    between atoms: C_8  and  C_9 
    4  A    between atoms: C_9  and  C_10 
    5  A    between atoms: C_10  and  O_11 
    6  A    between atoms: C_10  and  O_12 

>  <TORSDO>
F 6

$$$$
C:\Users\siddh\.mgltools\PyRx\Ligands\ZINC000004125109_uff_E=865.33.pdbqt
 OpenBabel04182118313D

 22 23  0  0  1  0  0  0  0  0999 V2000
   -0.5970   -2.5680   -1.4430 N   0  0  0  0  0  0  0  0  0  0  0  0
   -1.5860   -2.2760   -2.3400 C   0  0  0  0  0  0  0  0  0  0  0  0
   -1.5090   -1.4080   -3.1970 O   0  0  0  0  0  0  0  0  0  0  0  0
   -2.6380   -3.1250   -2.2260 N   0  0  0  0  0  0  0  0  0  0  0  0
   -2.0850   -4.2250   -1.4930 C   0  0  2  0  0  3  0  0  0  0  0  0
   -2.6470   -5.2260   -0.6430 N   0  0  0  0  0  0  0  0  0  0  0  0
   -1.6200   -5.5510    0.1830 C   0  0  0  0  0  0  0  0  0  0  0  0
   -1.5860   -6.5670    0.8590 O   0  0  0  0  0  0  0  0  0  0  0  0
   -0.6210   -4.6310    0.1520 N   0  0  0  0  0  0  0  0  0  0  0  0
   -1.1820   -3.4870   -0.5090 C   0  0  1  0  0  3  0  0  0  0  0  0
   -3.4150   -3.1660   -2.9020 H   0  0  0  0  0  0  0  0  0  0  0  0
   -3.4330   -5.8540   -0.8610 H   0  0  0  0  0  0  0  0  0  0  0  0
    0.2160   -4.6430    0.7530 H   0  0  0  0  0  0  0  0  0  0  0  0
    0.7440   -2.0120   -1.3370 C   0  0  2  0  0  3  0  0  0  0  0  0
    0.7330   -0.4750   -1.2450 C   0  0  0  0  0  2  0  0  0  0  0  0
   -0.0080    0.0280   -0.0010 C   0  0  0  0  0  2  0  0  0  0  0  0
   -0.0240    1.5530    0.0350 C   0  0  0  0  0  1  0  0  0  0  0  0
    1.5880   -2.4760   -2.4970 C   0  0  0  0  0  3  0  0  0  0  0  0
    2.9000   -2.1720   -2.5330 O   0  0  0  0  0  0  0  0  0  0  0  0
    3.4270   -2.4580   -3.2520 H   0  0  0  0  0  0  0  0  0  0  0  0
    1.0570   -3.2290   -3.4810 O   0  0  0  0  0  0  0  0  0  0  0  0
    0.1450   -3.4460   -3.4650 H   0  0  0  0  0  0  0  0  0  0  0  0
  1 14  1  0  0  0  0
  2  4  1  0  0  0  0
  2  1  1  0  0  0  0
  3  2  2  0  0  0  0
  5  4  1  1  0  0  0
  5  6  1  0  0  0  0
  5 10  1  0  0  0  0
  6  7  1  0  0  0  0
  7  8  2  0  0  0  0
  9  7  1  0  0  0  0
  9 13  1  0  0  0  0
 10  1  1  6  0  0  0
 10  9  1  0  0  0  0
 11  4  1  0  0  0  0
 12  6  1  0  0  0  0
 14 15  1  6  0  0  0
 15 16  1  0  0  0  0
 16 17  1  0  0  0  0
 18 14  1  0  0  0  0
 19 18  1  0  0  0  0
 20 19  1  0  0  0  0
 21 22  1  0  0  0  0
 21 18  1  0  0  0  0
M  END
>  <REMARK>
  6 active torsions:
  status: ('A' for Active; 'I' for Inactive)
    1  A    between atoms: C_2  and  C_3 
    2  A    between atoms: C_3  and  C_4 
    3  A    between atoms: C_4  and  C_5 
    4  A    between atoms: C_4  and  N_8 
    5  A    between atoms: C_5  and  O_6 
    6  A    between atoms: C_5  and  O_7 

>  <TORSDO>
F 6

$$$$
C:\Users\siddh\.mgltools\PyRx\Ligands\ZINC000004124653_uff_E=603.51.pdbqt
 OpenBabel04182118313D

 17 19  0  0  1  0  0  0  0  0999 V2000
    0.3910    1.4260   -0.6030 C   0  0  0  0  0  1  0  0  0  0  0  0
    0.3070   -0.0100   -0.4200 N   0  0  0  0  0  0  0  0  0  0  0  0
   -0.9360   -0.7370   -0.4290 C   0  0  0  0  0  2  0  0  0  0  0  0
   -0.4850   -2.0990    0.1170 C   0  0  2  0  0  0  0  0  0  0  0  0
   -1.2430   -3.3520   -0.1150 C   0  0  0  0  0  2  0  0  0  0  0  0
   -0.8060   -4.1740    0.8060 C   0  0  0  0  0  2  0  0  0  0  0  0
    0.1820   -3.3890    1.6280 C   0  0  2  0  0  3  0  0  0  0  0  0
   -0.3830   -2.1020    1.5340 O   0  0  0  0  0  0  0  0  0  0  0  0
    1.4940   -3.1840    0.8460 C   0  0  1  0  0  3  0  0  0  0  0  0
    0.9910   -2.2780   -0.3030 C   0  0  2  0  0  3  0  0  0  0  0  0
    1.3730   -0.8320   -0.3470 C   0  0  0  0  0  0  0  0  0  0  0  0
    2.5260   -0.4390   -0.4340 O   0  0  0  0  0  0  0  0  0  0  0  0
    2.5580   -2.5350    1.7030 C   0  0  0  0  0  3  0  0  0  0  0  0
    3.7870   -3.0810    1.7730 O   0  0  0  0  0  0  0  0  0  0  0  0
    4.4480   -2.6810    2.3040 H   0  0  0  0  0  0  0  0  0  0  0  0
    2.2900   -1.4120    2.4000 O   0  0  0  0  0  0  0  0  0  0  0  0
    1.4380   -1.0260    2.3570 H   0  0  0  0  0  0  0  0  0  0  0  0
  1  2  1  0  0  0  0
  2 11  1  0  0  0  0
  3  2  1  0  0  0  0
  4  3  1  6  0  0  0
  4  8  1  0  0  0  0
  5  4  1  0  0  0  0
  5  6  1  0  0  0  0
  7  6  1  6  0  0  0
  8  7  1  0  0  0  0
  9  7  1  0  0  0  0
  9 13  1  1  0  0  0
 10 11  1  1  0  0  0
 10  4  1  0  0  0  0
 10  9  1  0  0  0  0
 12 11  2  0  0  0  0
 13 14  1  0  0  0  0
 13 16  1  0  0  0  0
 14 15  1  0  0  0  0
 17 16  1  0  0  0  0
M  END
>  <REMARK>
  3 active torsions:
  status: ('A' for Active; 'I' for Inactive)
    1  A    between atoms: C_9  and  C_10 
    2  A    between atoms: C_10  and  O_11 
    3  A    between atoms: C_10  and  O_12 

>  <TORSDO>
F 3

$$$$
C:\Users\siddh\.mgltools\PyRx\Ligands\ZINC000004124646_uff_E=621.95.pdbqt
 OpenBabel04182118313D

 18 20  0  0  1  0  0  0  0  0999 V2000
    1.0050   -0.1260   -1.1580 N   0  0  0  0  0  0  0  0  0  0  0  0
    0.2590   -0.3210   -2.3760 C   0  0  0  0  0  2  0  0  0  0  0  0
    1.1900   -1.2720   -3.1360 C   0  0  2  0  0  0  0  0  0  0  0  0
    1.1370   -1.4570   -4.6060 C   0  0  0  0  0  2  0  0  0  0  0  0
    1.7510   -2.5940   -4.8160 C   0  0  0  0  0  2  0  0  0  0  0  0
    2.1300   -3.1170   -3.4560 C   0  0  2  0  0  3  0  0  0  0  0  0
    1.0610   -2.6140   -2.6890 O   0  0  0  0  0  0  0  0  0  0  0  0
    3.3060   -2.3090   -2.8720 C   0  0  1  0  0  3  0  0  0  0  0  0
    2.6300   -0.9270   -2.6940 C   0  0  2  0  0  3  0  0  0  0  0  0
    2.3130   -0.4120   -1.3250 C   0  0  0  0  0  0  0  0  0  0  0  0
    3.1590   -0.1770   -0.4770 O   0  0  0  0  0  0  0  0  0  0  0  0
    3.8020   -2.9120   -1.5760 C   0  0  0  0  0  3  0  0  0  0  0  0
    5.1140   -3.1710   -1.4170 O   0  0  0  0  0  0  0  0  0  0  0  0
    5.4240   -3.5440   -0.6150 H   0  0  0  0  0  0  0  0  0  0  0  0
    2.9440   -3.1970   -0.5760 O   0  0  0  0  0  0  0  0  0  0  0  0
    2.0290   -3.0200   -0.6780 H   0  0  0  0  0  0  0  0  0  0  0  0
    0.4730    0.5580    0.0080 C   0  0  0  0  0  2  0  0  0  0  0  0
    0.7280    2.0600   -0.0730 C   0  0  0  0  0  1  0  0  0  0  0  0
  1 17  1  0  0  0  0
  2  1  1  0  0  0  0
  3  4  1  6  0  0  0
  3  9  1  0  0  0  0
  3  7  1  0  0  0  0
  3  2  1  0  0  0  0
  5  4  1  0  0  0  0
  6  5  1  6  0  0  0
  6  8  1  0  0  0  0
  6  7  1  0  0  0  0
  8  9  1  0  0  0  0
  8 12  1  1  0  0  0
  9 10  1  1  0  0  0
 10  1  1  0  0  0  0
 10 11  2  0  0  0  0
 12 13  1  0  0  0  0
 12 15  1  0  0  0  0
 13 14  1  0  0  0  0
 16 15  1  0  0  0  0
 18 17  1  0  0  0  0
M  END
>  <REMARK>
  4 active torsions:
  status: ('A' for Active; 'I' for Inactive)
    1  A    between atoms: C_2  and  N_3 
    2  A    between atoms: C_10  and  C_11 
    3  A    between atoms: C_11  and  O_12 
    4  A    between atoms: C_11  and  O_13 

>  <TORSDO>
F 4

$$$$
C:\Users\siddh\.mgltools\PyRx\Ligands\ZINC000004124645_uff_E=768.79.pdbqt
 OpenBabel04182118313D

 18 20  0  0  1  0  0  0  0  0999 V2000
    0.6330   -0.4910   -1.1930 N   0  0  0  0  0  0  0  0  0  0  0  0
   -0.0040   -0.7990   -2.4600 C   0  0  0  0  0  2  0  0  0  0  0  0
    1.0850   -1.7060   -3.0420 C   0  0  1  0  0  0  0  0  0  0  0  0
    0.9430   -3.0940   -2.4540 C   0  0  0  0  0  2  0  0  0  0  0  0
    1.7300   -3.8420   -3.1580 C   0  0  0  0  0  2  0  0  0  0  0  0
    2.4050   -2.9080   -4.0980 C   0  0  1  0  0  3  0  0  0  0  0  0
    1.3220   -2.0140   -4.3960 O   0  0  0  0  0  0  0  0  0  0  0  0
    3.3910   -2.0420   -3.2340 C   0  0  1  0  0  3  0  0  0  0  0  0
    2.3980   -1.0170   -2.6510 C   0  0  2  0  0  3  0  0  0  0  0  0
    1.9790   -0.6190   -1.2790 C   0  0  0  0  0  0  0  0  0  0  0  0
    2.7440   -0.3100   -0.3800 O   0  0  0  0  0  0  0  0  0  0  0  0
    4.2190   -2.8490   -2.2530 C   0  0  0  0  0  3  0  0  0  0  0  0
    5.0790   -3.7760   -2.7120 O   0  0  0  0  0  0  0  0  0  0  0  0
    5.5930   -4.2780   -2.1110 H   0  0  0  0  0  0  0  0  0  0  0  0
    4.0880   -2.6710   -0.9240 O   0  0  0  0  0  0  0  0  0  0  0  0
    3.4920   -2.0280   -0.5940 H   0  0  0  0  0  0  0  0  0  0  0  0
   -0.0680    0.0200   -0.0310 C   0  0  0  0  0  2  0  0  0  0  0  0
   -0.0170    1.5420    0.0080 C   0  0  0  0  0  1  0  0  0  0  0  0
  1 17  1  0  0  0  0
  2  1  1  0  0  0  0
  3  9  1  0  0  0  0
  3  2  1  1  0  0  0
  3  4  1  0  0  0  0
  5  4  1  0  0  0  0
  6  8  1  0  0  0  0
  6  5  1  1  0  0  0
  7  6  1  0  0  0  0
  7  3  1  0  0  0  0
  8  9  1  0  0  0  0
  8 12  1  1  0  0  0
  9 10  1  1  0  0  0
 10  1  1  0  0  0  0
 10 11  2  0  0  0  0
 12 15  1  0  0  0  0
 13 12  1  0  0  0  0
 13 14  1  0  0  0  0
 15 16  1  0  0  0  0
 17 18  1  0  0  0  0
M  END
>  <REMARK>
  4 active torsions:
  status: ('A' for Active; 'I' for Inactive)
    1  A    between atoms: C_2  and  N_3 
    2  A    between atoms: C_10  and  C_11 
    3  A    between atoms: C_11  and  O_12 
    4  A    between atoms: C_11  and  O_13 

>  <TORSDO>
F 4

$$$$
C:\Users\siddh\.mgltools\PyRx\Ligands\ZINC000004051629_uff_E=148.04.pdbqt
 OpenBabel04182118313D

 21 20  0  0  1  0  0  0  0  0999 V2000
   -4.0920   -4.3760   -0.0930 C   0  0  0  0  0  3  0  0  0  0  0  0
   -4.3220   -5.7090    0.0080 C   0  0  0  0  0  0  0  0  0  0  0  0
   -3.2890   -6.5690    0.1380 O   0  0  0  0  0  0  0  0  0  0  0  0
   -3.4400   -7.5220    0.2120 H   0  0  0  0  0  0  0  0  0  0  0  0
   -5.6480   -6.2340    0.0450 N   0  0  0  0  0  0  0  0  0  0  0  0
   -6.6290   -5.8650   -0.7140 C   0  0  1  0  0  3  0  0  0  0  0  0
   -5.8400   -6.9650    0.7300 H   0  0  0  0  0  0  0  0  0  0  0  0
   -6.4310   -4.9910   -1.7230 O   0  0  0  0  0  0  0  0  0  0  0  0
   -5.5810   -4.6230   -1.8640 H   0  0  0  0  0  0  0  0  0  0  0  0
   -7.8690   -6.3870   -0.5260 O   0  0  0  0  0  0  0  0  0  0  0  0
   -8.1970   -7.1610    0.5720 C   0  0  0  0  0  2  0  0  0  0  0  0
   -9.6570   -7.5780    0.5010 C   0  0  0  0  0  1  0  0  0  0  0  0
   -2.7190   -3.7910   -0.0760 C   0  0  0  0  0  0  0  0  0  0  0  0
   -2.5500   -2.4300   -0.0920 N   0  0  0  0  0  0  0  0  0  0  0  0
   -1.3230   -1.8240   -0.0600 C   0  0  0  0  0  0  0  0  0  0  0  0
   -3.3880   -1.8280   -0.1220 H   0  0  0  0  0  0  0  0  0  0  0  0
   -0.2960   -2.4900   -0.0180 O   0  0  0  0  0  0  0  0  0  0  0  0
   -1.7480   -4.5340   -0.0340 O   0  0  0  0  0  0  0  0  0  0  0  0
   -1.2420   -0.4650   -0.0730 O   0  0  0  0  0  0  0  0  0  0  0  0
   -0.0270    0.1970   -0.0460 C   0  0  0  0  0  2  0  0  0  0  0  0
   -0.2350    1.7020   -0.0800 C   0  0  0  0  0  1  0  0  0  0  0  0
  1 13  1  0  0  0  0
  1  2  2  0  0  0  0
  2  5  1  0  0  0  0
  2  3  1  0  0  0  0
  3  4  1  0  0  0  0
  5  7  1  0  0  0  0
  6  8  1  6  0  0  0
  6 10  1  0  0  0  0
  6  5  1  0  0  0  0
  9  8  1  0  0  0  0
 10 11  1  0  0  0  0
 12 11  1  0  0  0  0
 13 18  2  0  0  0  0
 14 13  1  0  0  0  0
 14 15  1  0  0  0  0
 15 17  2  0  0  0  0
 16 14  1  0  0  0  0
 19 15  1  0  0  0  0
 19 20  1  0  0  0  0
 21 20  1  0  0  0  0
M  END
>  <REMARK>
  8 active torsions:
  status: ('A' for Active; 'I' for Inactive)
    1  A    between atoms: C_2  and  O_3 
    2  A    between atoms: O_3  and  C_4 
       I    between atoms: C_4  and  N_6 
       I    between atoms: N_6  and  C_7 
    3  A    between atoms: C_7  and  C_9 
    4  A    between atoms: C_10  and  O_11 
    5  A    between atoms: C_10  and  N_12 
    6  A    between atoms: C_14  and  O_15 
    7  A    between atoms: C_14  and  O_16 
    8  A    between atoms: O_16  and  C_17 

>  <TORSDO>
F 8

$$$$
C:\Users\siddh\.mgltools\PyRx\Ligands\ZINC000004029864_uff_E=349.89.pdbqt
 OpenBabel04182118313D

 20 21  0  0  1  0  0  0  0  0999 V2000
    0.6650   -0.4970    1.2190 N   0  0  0  0  0  0  0  0  0  0  0  0
    0.3520   -0.2670    2.5090 C   0  0  0  0  0  0  0  0  0  0  0  0
   -0.5950    0.4140    2.8710 O   0  0  0  0  0  0  0  0  0  0  0  0
    1.1860   -0.8490    3.3690 N   0  0  0  0  0  0  0  0  0  0  0  0
    2.2230   -1.5590    2.6640 C   0  0  2  0  0  3  0  0  0  0  0  0
    1.8550   -1.3350    1.1400 C   0  0  1  0  0  3  0  0  0  0  0  0
    1.5840   -2.6940    0.6820 N   0  0  0  0  0  0  0  0  0  0  0  0
    1.2300   -3.0870   -0.6680 C   0  0  0  0  0  1  0  0  0  0  0  0
    1.7470   -3.5670    1.6850 C   0  0  0  0  0  0  0  0  0  0  0  0
    1.5840   -4.7740    1.5580 O   0  0  0  0  0  0  0  0  0  0  0  0
    2.0900   -2.9870    2.8400 N   0  0  0  0  0  0  0  0  0  0  0  0
    2.2930   -3.6710    4.1010 C   0  0  0  0  0  1  0  0  0  0  0  0
    1.1020   -0.7940    4.3950 H   0  0  0  0  0  0  0  0  0  0  0  0
   -0.0350    0.0540    0.0580 C   0  0  2  0  0  3  0  0  0  0  0  0
   -0.0530    1.5890    0.0910 C   0  0  0  0  0  1  0  0  0  0  0  0
   -1.4310   -0.5050   -0.0600 C   0  0  0  0  0  3  0  0  0  0  0  0
   -1.7770   -1.2100   -1.1540 O   0  0  0  0  0  0  0  0  0  0  0  0
   -2.6430   -1.5590   -1.2310 H   0  0  0  0  0  0  0  0  0  0  0  0
   -2.3430   -0.2980    0.9090 O   0  0  0  0  0  0  0  0  0  0  0  0
   -2.1110    0.1920    1.6740 H   0  0  0  0  0  0  0  0  0  0  0  0
  1  2  1  0  0  0  0
  2  3  2  0  0  0  0
  2  4  1  0  0  0  0
  4 13  1  0  0  0  0
  5 11  1  1  0  0  0
  5  4  1  0  0  0  0
  6  7  1  1  0  0  0
  6  1  1  0  0  0  0
  6  5  1  0  0  0  0
  7  9  1  0  0  0  0
  8  7  1  0  0  0  0
  9 11  1  0  0  0  0
 10  9  2  0  0  0  0
 11 12  1  0  0  0  0
 14 15  1  1  0  0  0
 14  1  1  0  0  0  0
 16 14  1  0  0  0  0
 16 19  1  0  0  0  0
 17 16  1  0  0  0  0
 18 17  1  0  0  0  0
 19 20  1  0  0  0  0
M  END
>  <REMARK>
  4 active torsions:
  status: ('A' for Active; 'I' for Inactive)
    1  A    between atoms: C_2  and  C_3 
    2  A    between atoms: C_2  and  N_6 
    3  A    between atoms: C_3  and  O_4 
    4  A    between atoms: C_3  and  O_5 

>  <TORSDO>
F 4

$$$$
C:\Users\siddh\.mgltools\PyRx\Ligands\ZINC000004029862_uff_E=891.25.pdbqt
 OpenBabel04182118313D

 20 21  0  0  1  0  0  0  0  0999 V2000
    0.7590   -0.3690    1.2420 N   0  0  0  0  0  0  0  0  0  0  0  0
    0.3930   -0.1810    2.5440 C   0  0  0  0  0  0  0  0  0  0  0  0
   -0.6100    0.4200    2.8990 O   0  0  0  0  0  0  0  0  0  0  0  0
    1.2870   -0.7220    3.4100 N   0  0  0  0  0  0  0  0  0  0  0  0
    2.4600   -0.9430    2.6190 C   0  0  2  0  0  3  0  0  0  0  0  0
    1.8170   -1.3430    1.2890 C   0  0  2  0  0  3  0  0  0  0  0  0
    3.0130   -1.5500    0.5090 N   0  0  0  0  0  0  0  0  0  0  0  0
    3.0430   -1.8010   -0.9190 C   0  0  0  0  0  1  0  0  0  0  0  0
    3.8750   -2.1330    1.3940 C   0  0  0  0  0  0  0  0  0  0  0  0
    4.8650   -2.7730    1.0700 O   0  0  0  0  0  0  0  0  0  0  0  0
    3.4820   -1.9410    2.6820 N   0  0  0  0  0  0  0  0  0  0  0  0
    4.1430   -2.4110    3.8780 C   0  0  0  0  0  1  0  0  0  0  0  0
    1.2530   -0.5970    4.4320 H   0  0  0  0  0  0  0  0  0  0  0  0
    0.0290    0.0380    0.0470 C   0  0  2  0  0  3  0  0  0  0  0  0
   -0.0120    1.5640   -0.0550 C   0  0  0  0  0  1  0  0  0  0  0  0
   -1.3660   -0.5440   -0.0040 C   0  0  0  0  0  3  0  0  0  0  0  0
   -2.1310   -0.3390   -1.0940 O   0  0  0  0  0  0  0  0  0  0  0  0
   -2.9960   -0.6970   -1.1330 H   0  0  0  0  0  0  0  0  0  0  0  0
   -1.8500   -1.2900    1.0080 O   0  0  0  0  0  0  0  0  0  0  0  0
   -1.3270   -1.4390    1.7710 H   0  0  0  0  0  0  0  0  0  0  0  0
  1  6  1  0  0  0  0
  1  2  1  0  0  0  0
  2  3  2  0  0  0  0
  2  4  1  0  0  0  0
  4 13  1  0  0  0  0
  5 11  1  1  0  0  0
  5  4  1  0  0  0  0
  6  7  1  6  0  0  0
  6  5  1  0  0  0  0
  7  9  1  0  0  0  0
  8  7  1  0  0  0  0
  9 11  1  0  0  0  0
 10  9  2  0  0  0  0
 11 12  1  0  0  0  0
 14 15  1  1  0  0  0
 14  1  1  0  0  0  0
 16 14  1  0  0  0  0
 16 19  1  0  0  0  0
 17 16  1  0  0  0  0
 18 17  1  0  0  0  0
 19 20  1  0  0  0  0
M  END
>  <REMARK>
  4 active torsions:
  status: ('A' for Active; 'I' for Inactive)
    1  A    between atoms: C_2  and  C_3 
    2  A    between atoms: C_2  and  N_6 
    3  A    between atoms: C_3  and  O_4 
    4  A    between atoms: C_3  and  O_5 

>  <TORSDO>
F 4

$$$$
C:\Users\siddh\.mgltools\PyRx\Ligands\ZINC000004029391_uff_E=345.13.pdbqt
 OpenBabel04182118313D

 22 23  0  0  1  0  0  0  0  0999 V2000
    0.0780   -0.1240    0.0010 O   0  0  0  0  0  0  0  0  0  0  0  0
    0.0100    1.2230    0.0090 C   0  0  0  0  0  3  0  0  0  0  0  0
    0.2060   -1.0520   -0.0130 H   0  0  0  0  0  0  0  0  0  0  0  0
    1.1460    1.9440    0.0030 O   0  0  0  0  0  0  0  0  0  0  0  0
    1.1080    2.8800    0.0080 H   0  0  0  0  0  0  0  0  0  0  0  0
   -1.3160    1.9310    0.0230 C   0  0  0  0  0  2  0  0  0  0  0  0
   -2.4880    0.9470    0.0270 C   0  0  0  0  0  2  0  0  0  0  0  0
   -3.8210    1.6890    0.0420 C   0  0  0  0  0  2  0  0  0  0  0  0
   -4.9850    0.6990    0.0190 C   0  0  0  0  0  2  0  0  0  0  0  0
   -6.2510    1.4040    0.0280 N   0  0  0  0  0  0  0  0  0  0  0  0
   -6.9730    1.8220   -1.1570 C   0  0  1  0  0  3  0  0  0  0  0  0
   -8.2500    2.5290   -0.5560 C   0  0  1  0  0  3  0  0  0  0  0  0
   -6.3020    2.9020   -1.8470 N   0  0  0  0  0  0  0  0  0  0  0  0
   -8.0590    2.4090    0.8710 N   0  0  0  0  0  0  0  0  0  0  0  0
   -8.1040    3.8980   -0.9880 N   0  0  0  0  0  0  0  0  0  0  0  0
   -6.9240    1.7600    1.1310 C   0  0  0  0  0  0  0  0  0  0  0  0
   -8.6980    2.7860    1.5860 H   0  0  0  0  0  0  0  0  0  0  0  0
   -6.5320    1.5340    2.2670 O   0  0  0  0  0  0  0  0  0  0  0  0
   -6.9930    4.0350   -1.7130 C   0  0  0  0  0  0  0  0  0  0  0  0
   -8.7540    4.6630   -0.7560 H   0  0  0  0  0  0  0  0  0  0  0  0
   -6.6330    5.0990   -2.1910 O   0  0  0  0  0  0  0  0  0  0  0  0
   -5.4140    2.8200   -2.3620 H   0  0  0  0  0  0  0  0  0  0  0  0
  1  2  1  0  0  0  0
  2  6  1  0  0  0  0
  3  1  1  0  0  0  0
  4  5  1  0  0  0  0
  4  2  1  0  0  0  0
  6  7  1  0  0  0  0
  7  8  1  0  0  0  0
  9 10  1  0  0  0  0
  9  8  1  0  0  0  0
 10 16  1  0  0  0  0
 11 13  1  1  0  0  0
 11 12  1  0  0  0  0
 11 10  1  0  0  0  0
 12 15  1  1  0  0  0
 12 14  1  0  0  0  0
 13 19  1  0  0  0  0
 14 16  1  0  0  0  0
 14 17  1  0  0  0  0
 15 20  1  0  0  0  0
 16 18  2  0  0  0  0
 19 15  1  0  0  0  0
 21 19  2  0  0  0  0
 22 13  1  0  0  0  0
M  END
>  <REMARK>
  6 active torsions:
  status: ('A' for Active; 'I' for Inactive)
    1  A    between atoms: C_2  and  O_3 
    2  A    between atoms: C_2  and  C_4 
    3  A    between atoms: C_4  and  C_5 
    4  A    between atoms: C_5  and  C_6 
    5  A    between atoms: C_6  and  C_7 
    6  A    between atoms: C_7  and  N_8 

>  <TORSDO>
F 6

$$$$
C:\Users\siddh\.mgltools\PyRx\Ligands\ZINC000004029390_uff_E=867.42.pdbqt
 OpenBabel04182118313D

 22 23  0  0  1  0  0  0  0  0999 V2000
    0.0930   -0.1020   -0.0010 O   0  0  0  0  0  0  0  0  0  0  0  0
    0.0240    1.2450    0.0060 C   0  0  0  0  0  3  0  0  0  0  0  0
    0.2240   -1.0300   -0.0140 H   0  0  0  0  0  0  0  0  0  0  0  0
    1.1600    1.9650   -0.0060 O   0  0  0  0  0  0  0  0  0  0  0  0
    1.1220    2.9010   -0.0020 H   0  0  0  0  0  0  0  0  0  0  0  0
   -1.3050    1.9550    0.0290 C   0  0  0  0  0  2  0  0  0  0  0  0
   -2.4810    0.9760    0.0470 C   0  0  0  0  0  2  0  0  0  0  0  0
   -3.8350    1.6980    0.0870 C   0  0  0  0  0  2  0  0  0  0  0  0
   -4.9500    0.6520    0.0780 C   0  0  0  0  0  2  0  0  0  0  0  0
   -6.2690    1.2410    0.0700 N   0  0  0  0  0  0  0  0  0  0  0  0
   -7.0320    1.5460   -1.1020 C   0  0  2  0  0  3  0  0  0  0  0  0
   -8.4190    1.5050   -0.4690 C   0  0  1  0  0  3  0  0  0  0  0  0
   -7.2930    0.7810   -2.2830 N   0  0  0  0  0  0  0  0  0  0  0  0
   -8.1660    2.2620    0.7260 N   0  0  0  0  0  0  0  0  0  0  0  0
   -9.2290    1.7380   -1.6260 N   0  0  0  0  0  0  0  0  0  0  0  0
   -6.9120    1.8790    1.0860 C   0  0  0  0  0  0  0  0  0  0  0  0
   -8.8710    2.6250    1.3850 H   0  0  0  0  0  0  0  0  0  0  0  0
   -6.4510    2.0280    2.2090 O   0  0  0  0  0  0  0  0  0  0  0  0
   -8.5680    1.0970   -2.6250 C   0  0  0  0  0  0  0  0  0  0  0  0
  -10.2370    1.9500   -1.6430 H   0  0  0  0  0  0  0  0  0  0  0  0
   -9.0660    0.8260   -3.7060 O   0  0  0  0  0  0  0  0  0  0  0  0
   -6.5920    0.3820   -2.9240 H   0  0  0  0  0  0  0  0  0  0  0  0
  1  2  1  0  0  0  0
  2  6  1  0  0  0  0
  3  1  1  0  0  0  0
  4  5  1  0  0  0  0
  4  2  1  0  0  0  0
  6  7  1  0  0  0  0
  7  8  1  0  0  0  0
  9  8  1  0  0  0  0
 10  9  1  0  0  0  0
 10 16  1  0  0  0  0
 11 13  1  6  0  0  0
 11 12  1  0  0  0  0
 11 10  1  0  0  0  0
 12 15  1  6  0  0  0
 12 14  1  0  0  0  0
 14 16  1  0  0  0  0
 14 17  1  0  0  0  0
 16 18  2  0  0  0  0
 19 13  1  0  0  0  0
 19 15  1  0  0  0  0
 20 15  1  0  0  0  0
 21 19  2  0  0  0  0
 22 13  1  0  0  0  0
M  END
>  <REMARK>
  6 active torsions:
  status: ('A' for Active; 'I' for Inactive)
    1  A    between atoms: C_2  and  O_3 
    2  A    between atoms: C_2  and  C_4 
    3  A    between atoms: C_4  and  C_5 
    4  A    between atoms: C_5  and  C_6 
    5  A    between atoms: C_6  and  C_7 
    6  A    between atoms: C_7  and  N_8 

>  <TORSDO>
F 6

$$$$
C:\Users\siddh\.mgltools\PyRx\Ligands\ZINC000003905883_uff_E=390.77.pdbqt
 OpenBabel04182118313D

 22 23  0  0  1  0  0  0  0  0999 V2000
    2.0790   -0.2460   -1.1000 N   0  0  0  0  0  0  0  0  0  0  0  0
    2.4460    1.0170   -0.8030 C   0  0  0  0  0  0  0  0  0  0  0  0
    1.6540    1.9340   -0.6380 O   0  0  0  0  0  0  0  0  0  0  0  0
    3.7680    1.1820   -0.7020 N   0  0  0  0  0  0  0  0  0  0  0  0
    4.4490   -0.0670   -0.9250 C   0  0  2  0  0  3  0  0  0  0  0  0
    5.1750   -0.0520   -2.1720 N   0  0  0  0  0  0  0  0  0  0  0  0
    4.6010   -0.8800   -3.0450 C   0  0  0  0  0  0  0  0  0  0  0  0
    5.0120   -1.0430   -4.1840 O   0  0  0  0  0  0  0  0  0  0  0  0
    3.5200   -1.4930   -2.5640 N   0  0  0  0  0  0  0  0  0  0  0  0
    3.2720   -1.0760   -1.2000 C   0  0  2  0  0  3  0  0  0  0  0  0
    4.2350    2.0780   -0.5000 H   0  0  0  0  0  0  0  0  0  0  0  0
    6.0060    0.5240   -2.3680 H   0  0  0  0  0  0  0  0  0  0  0  0
    2.9380   -2.1460   -3.1070 H   0  0  0  0  0  0  0  0  0  0  0  0
    0.6730   -0.6720   -1.2670 C   0  0  1  0  0  3  0  0  0  0  0  0
    0.0400    0.0250   -2.5230 C   0  0  0  0  0  3  0  0  0  0  0  0
    0.7570   -0.3830   -3.8180 C   0  0  0  0  0  1  0  0  0  0  0  0
   -1.4700   -0.2290   -2.6700 C   0  0  0  0  0  1  0  0  0  0  0  0
    0.4420   -2.1910   -1.2850 C   0  0  0  0  0  3  0  0  0  0  0  0
    1.4480   -3.0800   -1.3560 O   0  0  0  0  0  0  0  0  0  0  0  0
    1.2620   -3.9980   -1.3640 H   0  0  0  0  0  0  0  0  0  0  0  0
   -0.8120   -2.6690   -1.1770 O   0  0  0  0  0  0  0  0  0  0  0  0
   -1.5360   -2.0770   -1.1260 H   0  0  0  0  0  0  0  0  0  0  0  0
  1  2  1  0  0  0  0
  2  4  1  0  0  0  0
  2  3  2  0  0  0  0
  4 11  1  0  0  0  0
  5  6  1  6  0  0  0
  5  4  1  0  0  0  0
  7  9  1  0  0  0  0
  7  6  1  0  0  0  0
  8  7  2  0  0  0  0
 10  9  1  6  0  0  0
 10  1  1  0  0  0  0
 10  5  1  0  0  0  0
 12  6  1  0  0  0  0
 13  9  1  0  0  0  0
 14 15  1  6  0  0  0
 14  1  1  0  0  0  0
 16 15  1  0  0  0  0
 17 15  1  0  0  0  0
 18 14  1  0  0  0  0
 18 21  1  0  0  0  0
 19 18  1  0  0  0  0
 20 19  1  0  0  0  0
 21 22  1  0  0  0  0
M  END
>  <REMARK>
  5 active torsions:
  status: ('A' for Active; 'I' for Inactive)
    1  A    between atoms: C_2  and  C_4 
    2  A    between atoms: C_4  and  C_5 
    3  A    between atoms: C_4  and  N_8 
    4  A    between atoms: C_5  and  O_6 
    5  A    between atoms: C_5  and  O_7 

>  <TORSDO>
F 5

$$$$
C:\Users\siddh\.mgltools\PyRx\Ligands\ZINC000003887395_uff_E=421.24.pdbqt
 OpenBabel04182118313D

 18 19  0  0  0  0  0  0  0  0999 V2000
    0.0560   -0.1040   -0.0150 O   0  0  0  0  0  0  0  0  0  0  0  0
    0.0130    1.2440   -0.0070 C   0  0  0  0  0  3  0  0  0  0  0  0
    0.1390   -1.0370   -0.0310 H   0  0  0  0  0  0  0  0  0  0  0  0
    1.1610    1.9450    0.0040 O   0  0  0  0  0  0  0  0  0  0  0  0
    1.1380    2.8820    0.0100 H   0  0  0  0  0  0  0  0  0  0  0  0
   -1.3020    1.9700   -0.0020 C   0  0  0  0  0  2  0  0  0  0  0  0
   -2.4090    1.0300   -0.0050 N   0  0  0  0  0  0  0  0  0  0  0  0
   -3.0030    0.5100    1.0830 C   0  0  0  0  0  0  0  0  0  0  0  0
   -4.0950   -0.4630    0.6920 C   0  0  0  0  0  0  0  0  0  0  0  0
   -2.6800    0.7850    2.2290 O   0  0  0  0  0  0  0  0  0  0  0  0
   -3.9800   -0.3600   -0.7620 N   0  0  0  0  0  0  0  0  0  0  0  0
   -3.8650   -1.9150    1.1610 C   0  0  0  0  0  2  0  0  0  0  0  0
   -5.4890   -0.0660    1.1870 C   0  0  0  0  0  2  0  0  0  0  0  0
   -2.9980    0.5030   -1.0840 C   0  0  0  0  0  0  0  0  0  0  0  0
   -4.5550   -0.8740   -1.4460 H   0  0  0  0  0  0  0  0  0  0  0  0
   -2.6810    0.7650   -2.2340 O   0  0  0  0  0  0  0  0  0  0  0  0
   -5.1090   -2.2480    1.9800 C   0  0  0  0  0  2  0  0  0  0  0  0
   -6.1960   -1.4060    1.3190 C   0  0  0  0  0  2  0  0  0  0  0  0
  1  2  1  0  0  0  0
  2  6  1  0  0  0  0
  2  4  1  0  0  0  0
  3  1  1  0  0  0  0
  4  5  1  0  0  0  0
  7  6  1  0  0  0  0
  7  8  1  0  0  0  0
  8 10  2  0  0  0  0
  9  8  1  0  0  0  0
  9 12  1  0  0  0  0
  9 13  1  0  0  0  0
 11  9  1  0  0  0  0
 12 17  1  0  0  0  0
 13 18  1  0  0  0  0
 14 11  1  0  0  0  0
 14  7  1  0  0  0  0
 15 11  1  0  0  0  0
 16 14  2  0  0  0  0
 18 17  1  0  0  0  0
M  END
>  <REMARK>
  3 active torsions:
  status: ('A' for Active; 'I' for Inactive)
    1  A    between atoms: C_2  and  O_3 
    2  A    between atoms: C_2  and  C_4 
    3  A    between atoms: C_4  and  N_5 

>  <TORSDO>
F 3

$$$$
C:\Users\siddh\.mgltools\PyRx\Ligands\ZINC000003883379_uff_E=589.61.pdbqt
 OpenBabel04182118313D

 17 17  0  0  1  0  0  0  0  0999 V2000
    0.8130   -0.5460    1.1750 C   0  0  2  0  0  3  0  0  0  0  0  0
    1.2900   -2.0160    1.4020 C   0  0  0  0  0  3  0  0  0  0  0  0
    0.1540   -2.8780    1.9750 C   0  0  0  0  0  1  0  0  0  0  0  0
    1.7960   -2.6520    0.0950 C   0  0  0  0  0  1  0  0  0  0  0  0
    1.9390    0.3120    0.6250 C   0  0  0  0  0  3  0  0  0  0  0  0
    1.8370    0.8420   -0.6070 O   0  0  0  0  0  0  0  0  0  0  0  0
    2.5300    1.3720   -0.9480 H   0  0  0  0  0  0  0  0  0  0  0  0
    3.0520    0.5340    1.3530 O   0  0  0  0  0  0  0  0  0  0  0  0
    3.1300    0.1680    2.2120 H   0  0  0  0  0  0  0  0  0  0  0  0
    0.1660    0.0660    2.3770 N   0  0  0  0  0  0  0  0  0  0  0  0
    1.0380    0.1130    3.5920 C   0  0  0  0  0  2  0  0  0  0  0  0
    0.2270    0.3190    4.8740 C   0  0  0  0  0  2  0  0  0  0  0  0
   -0.7190    1.8240    4.6670 S   0  0  0  0  0  0  0  0  0  0  0  0
   -1.4520    1.8900    3.0330 C   0  0  0  0  0  2  0  0  0  0  0  0
    0.1840    3.0460    4.8940 O   0  0  0  0  0  0  0  0  0  0  0  0
   -1.7760    1.9820    5.7700 O   0  0  0  0  0  0  0  0  0  0  0  0
   -0.3940    1.4090    2.0340 C   0  0  0  0  0  2  0  0  0  0  0  0
  1  5  1  1  0  0  0
  1  2  1  0  0  0  0
  1 10  1  0  0  0  0
  2  3  1  0  0  0  0
  4  2  1  0  0  0  0
  5  8  1  0  0  0  0
  6  5  1  0  0  0  0
  7  6  1  0  0  0  0
  8  9  1  0  0  0  0
 10 11  1  0  0  0  0
 11 12  1  0  0  0  0
 13 12  1  0  0  0  0
 13 15  2  0  0  0  0
 13 16  2  0  0  0  0
 14 13  1  0  0  0  0
 17 10  1  0  0  0  0
 17 14  1  0  0  0  0
M  END
>  <REMARK>
  5 active torsions:
  status: ('A' for Active; 'I' for Inactive)
    1  A    between atoms: C_2  and  C_4 
    2  A    between atoms: C_4  and  C_5 
    3  A    between atoms: C_4  and  N_8 
    4  A    between atoms: C_5  and  O_6 
    5  A    between atoms: C_5  and  O_7 

>  <TORSDO>
F 5

$$$$
C:\Users\siddh\.mgltools\PyRx\Ligands\ZINC000003883208_uff_E=414.19.pdbqt
 OpenBabel04182118313D

 19 20  0  0  1  0  0  0  0  0999 V2000
    0.1240   -0.0520   -0.0230 O   0  0  0  0  0  0  0  0  0  0  0  0
   -0.0010    1.2890   -0.0820 C   0  0  0  0  0  3  0  0  0  0  0  0
    0.3560   -0.9530    0.0860 H   0  0  0  0  0  0  0  0  0  0  0  0
    1.1040    2.0500   -0.1890 O   0  0  0  0  0  0  0  0  0  0  0  0
    1.0280    2.9830   -0.2310 H   0  0  0  0  0  0  0  0  0  0  0  0
   -1.3600    1.9470    0.0180 C   0  0  1  0  0  3  0  0  0  0  0  0
   -2.4630    1.0090    0.1580 N   0  0  0  0  0  0  0  0  0  0  0  0
   -3.2610    1.2680    1.3370 C   0  0  0  0  0  2  0  0  0  0  0  0
   -2.7530    0.0500   -0.7840 C   0  0  0  0  0  0  0  0  0  0  0  0
   -2.9090    2.7230    1.6660 C   0  0  1  0  0  3  0  0  0  0  0  0
   -1.4310    2.7650    1.3160 C   0  0  0  0  0  2  0  0  0  0  0  0
   -2.0570   -0.0360   -1.7880 O   0  0  0  0  0  0  0  0  0  0  0  0
   -3.6010    3.5840    0.7970 O   0  0  0  0  0  0  0  0  0  0  0  0
   -4.5450    3.5990    1.1100 H   0  0  0  0  0  0  0  0  0  0  0  0
   -3.8990   -0.8900   -0.6500 C   0  0  0  0  0  0  0  0  0  0  0  0
   -4.7320   -0.9410    0.3650 O   0  0  0  0  0  0  0  0  0  0  0  0
   -5.6240   -1.8790    0.1470 C   0  0  0  0  0  3  0  0  0  0  0  0
   -5.3660   -2.4820   -1.0650 C   0  0  0  0  0  3  0  0  0  0  0  0
   -4.2570   -1.8490   -1.5800 C   0  0  0  0  0  3  0  0  0  0  0  0
  1  3  1  0  0  0  0
  2  1  1  0  0  0  0
  4  2  1  0  0  0  0
  5  4  1  0  0  0  0
  6  2  1  1  0  0  0
  6  7  1  0  0  0  0
  6 11  1  0  0  0  0
  7  8  1  0  0  0  0
  8 10  1  0  0  0  0
  9 15  1  0  0  0  0
  9  7  1  0  0  0  0
 10 13  1  6  0  0  0
 11 10  1  0  0  0  0
 12  9  2  0  0  0  0
 13 14  1  0  0  0  0
 15 16  1  0  0  0  0
 17 16  1  0  0  0  0
 18 17  2  0  0  0  0
 19 18  1  0  0  0  0
 19 15  2  0  0  0  0
M  END
>  <REMARK>
  4 active torsions:
  status: ('A' for Active; 'I' for Inactive)
    1  A    between atoms: C_2  and  O_3 
    2  A    between atoms: C_2  and  C_4 
    3  A    between atoms: C_6  and  O_7 
       I    between atoms: N_9  and  C_10 
    4  A    between atoms: C_10  and  C_12 

>  <TORSDO>
F 4

$$$$
C:\Users\siddh\.mgltools\PyRx\Ligands\ZINC000003874394_uff_E=133.59.pdbqt
 OpenBabel04182118313D

 20 19  0  0  1  0  0  0  0  0999 V2000
    2.0100   -3.7040   -3.2370 C   0  0  0  0  0  0  0  0  0  0  0  0
    1.5580   -4.3090   -4.1980 O   0  0  0  0  0  0  0  0  0  0  0  0
    2.7930   -4.3540   -2.3250 N   0  0  0  0  0  0  0  0  0  0  0  0
    3.1320   -3.8440   -1.4980 H   0  0  0  0  0  0  0  0  0  0  0  0
    1.6930   -2.2230   -3.0610 C   0  0  2  0  0  3  0  0  0  0  0  0
    1.0530   -1.9050   -1.6840 C   0  0  0  0  0  2  0  0  0  0  0  0
    0.8400   -0.3980   -1.4900 C   0  0  0  0  0  2  0  0  0  0  0  0
    0.0890   -0.0890    0.1440 S   0  0  0  0  0  0  0  0  0  0  0  0
    0.0510    1.7220   -0.0490 C   0  0  0  0  0  1  0  0  0  0  0  0
    0.8580   -1.7230   -4.1550 N   0  0  0  0  0  0  0  0  0  0  0  0
    1.2530   -1.0010   -4.7750 H   0  0  0  0  0  0  0  0  0  0  0  0
   -0.4140   -2.1480   -4.4000 C   0  0  0  0  0  3  0  0  0  0  0  0
   -0.9440   -3.0030   -3.7060 O   0  0  0  0  0  0  0  0  0  0  0  0
    3.1080   -5.7740   -2.4370 C   0  0  2  0  0  3  0  0  0  0  0  0
    2.2780   -6.5410   -1.4110 C   0  0  0  0  0  1  0  0  0  0  0  0
    4.5830   -6.0240   -2.2220 C   0  0  0  0  0  3  0  0  0  0  0  0
    5.4260   -5.0070   -1.9550 O   0  0  0  0  0  0  0  0  0  0  0  0
    6.3380   -5.1770   -1.8240 H   0  0  0  0  0  0  0  0  0  0  0  0
    5.0640   -7.2820   -2.2860 O   0  0  0  0  0  0  0  0  0  0  0  0
    4.4860   -7.9950   -2.4710 H   0  0  0  0  0  0  0  0  0  0  0  0
  1  5  1  0  0  0  0
  1  3  1  0  0  0  0
  2  1  2  0  0  0  0
  3  4  1  0  0  0  0
  5  6  1  1  0  0  0
  6  7  1  0  0  0  0
  7  8  1  0  0  0  0
  9  8  1  0  0  0  0
 10  5  1  0  0  0  0
 11 10  1  0  0  0  0
 12 10  1  0  0  0  0
 12 13  2  0  0  0  0
 14  3  1  0  0  0  0
 14 16  1  0  0  0  0
 14 15  1  1  0  0  0
 16 17  1  0  0  0  0
 17 18  1  0  0  0  0
 19 16  1  0  0  0  0
 20 19  1  0  0  0  0
M  END
>  <REMARK>
  10 active torsions:
  status: ('A' for Active; 'I' for Inactive)
    1  A    between atoms: S_2  and  C_3 
    2  A    between atoms: C_3  and  C_4 
    3  A    between atoms: C_4  and  C_5 
    4  A    between atoms: C_5  and  N_6 
    5  A    between atoms: C_5  and  C_9 
    6  A    between atoms: N_6  and  C_7 
       I    between atoms: C_9  and  N_11 
    7  A    between atoms: N_11  and  C_12 
    8  A    between atoms: C_12  and  C_14 
    9  A    between atoms: C_14  and  O_15 
   10  A    between atoms: C_14  and  O_16 

>  <TORSDO>
F 10

$$$$
C:\Users\siddh\.mgltools\PyRx\Ligands\ZINC000003852619_uff_E=398.80.pdbqt
 OpenBabel04182118313D

 22 23  0  0  1  0  0  0  0  0999 V2000
   -0.0530    1.4640    0.0180 C   0  0  0  0  0  1  0  0  0  0  0  0
   -0.0320    0.0070   -0.0120 N   0  0  0  0  0  0  0  0  0  0  0  0
    0.0040   -0.7120   -1.1290 N   0  0  0  0  0  0  0  0  0  0  0  0
   -0.0070   -0.3460   -2.0810 H   0  0  0  0  0  0  0  0  0  0  0  0
    0.0570   -2.0180   -0.7750 C   0  0  1  0  0  3  0  0  0  0  0  0
    0.0700   -2.1160    0.6070 C   0  0  0  0  0  0  0  0  0  0  0  0
    0.1490   -3.1810    1.5020 C   0  0  0  0  0  0  0  0  0  0  0  0
    0.1160   -2.8670    2.9040 C   0  0  0  0  0  0  0  0  0  0  0  0
    0.0390   -1.4920    3.2860 C   0  0  0  0  0  2  0  0  0  0  0  0
   -0.0070   -0.4980    2.3510 N   0  0  0  0  0  0  0  0  0  0  0  0
   -0.0480    0.4800    2.6360 H   0  0  0  0  0  0  0  0  0  0  0  0
    0.0020   -0.8310    1.0400 C   0  0  0  0  0  0  0  0  0  0  0  0
    0.1390   -3.8950    3.9910 C   0  0  0  0  0  3  0  0  0  0  0  0
    0.1410   -3.5040    5.2810 O   0  0  0  0  0  0  0  0  0  0  0  0
    0.1560   -4.1440    5.9650 H   0  0  0  0  0  0  0  0  0  0  0  0
    0.1090   -5.2130    3.7270 O   0  0  0  0  0  0  0  0  0  0  0  0
    0.1070   -5.5130    2.8390 H   0  0  0  0  0  0  0  0  0  0  0  0
    0.2770   -4.4320    1.0090 O   0  0  0  0  0  0  0  0  0  0  0  0
    0.5030   -5.2110    1.5240 H   0  0  0  0  0  0  0  0  0  0  0  0
    0.0830   -3.0820   -1.7070 N   0  0  0  0  0  0  0  0  0  0  0  0
    0.0540   -2.8810   -2.7160 H   0  0  0  0  0  0  0  0  0  0  0  0
    0.0960   -4.0620   -1.3950 H   0  0  0  0  0  0  0  0  0  0  0  0
  2  1  1  0  0  0  0
  2 12  1  0  0  0  0
  3  5  1  0  0  0  0
  3  2  1  0  0  0  0
  4  3  1  0  0  0  0
  5 20  1  1  0  0  0
  5  6  1  0  0  0  0
  6 12  2  0  0  0  0
  6  7  1  0  0  0  0
  7  8  2  0  0  0  0
  8  9  1  0  0  0  0
  8 13  1  0  0  0  0
 10 11  1  0  0  0  0
 10  9  1  0  0  0  0
 12 10  1  0  0  0  0
 13 14  1  0  0  0  0
 14 15  1  0  0  0  0
 16 13  1  0  0  0  0
 17 16  1  0  0  0  0
 18  7  1  0  0  0  0
 18 19  1  0  0  0  0
 20 22  1  0  0  0  0
 21 20  1  0  0  0  0
M  END
>  <REMARK>
  5 active torsions:
  status: ('A' for Active; 'I' for Inactive)
    1  A    between atoms: C_5  and  N_6 
    2  A    between atoms: C_8  and  O_9 
    3  A    between atoms: C_10  and  C_11 
    4  A    between atoms: C_11  and  O_12 
    5  A    between atoms: C_11  and  O_13 

>  <TORSDO>
F 5

$$$$
C:\Users\siddh\.mgltools\PyRx\Ligands\ZINC000003851493_uff_E=175.13.pdbqt
 OpenBabel04182118313D

 21 22  0  0  1  0  0  0  0  0999 V2000
    0.0000   -0.0040   -0.0080 C   0  0  2  0  0  3  0  0  0  0  0  0
   -1.2230   -0.7410    0.0080 C   0  0  0  0  0  0  0  0  0  0  0  0
   -2.5050   -0.1340    0.0080 C   0  0  0  0  0  3  0  0  0  0  0  0
   -3.6620   -0.9190    0.0110 C   0  0  0  0  0  3  0  0  0  0  0  0
   -3.5710   -2.3090    0.0110 C   0  0  0  0  0  3  0  0  0  0  0  0
   -2.3220   -2.9240    0.0150 C   0  0  0  0  0  3  0  0  0  0  0  0
   -1.1550   -2.1520    0.0180 C   0  0  0  0  0  0  0  0  0  0  0  0
    0.0420   -2.7740    0.0270 N   0  0  0  0  0  0  0  0  0  0  0  0
    0.0720   -3.7940    0.0340 H   0  0  0  0  0  0  0  0  0  0  0  0
    1.2110   -2.0770    0.0280 C   0  0  0  0  0  0  0  0  0  0  0  0
    2.2630   -2.6960    0.0240 O   0  0  0  0  0  0  0  0  0  0  0  0
    1.2060   -0.6910    0.0080 N   0  0  0  0  0  0  0  0  0  0  0  0
    2.5050    0.0210   -0.0150 C   0  0  0  0  0  2  0  0  0  0  0  0
    2.8940    0.3830   -1.4210 C   0  0  0  0  0  3  0  0  0  0  0  0
    2.1130    0.0340   -2.4630 O   0  0  0  0  0  0  0  0  0  0  0  0
    2.3650    0.2640   -3.3360 H   0  0  0  0  0  0  0  0  0  0  0  0
    4.0590    1.0180   -1.6490 O   0  0  0  0  0  0  0  0  0  0  0  0
    4.6070    1.2640   -0.9300 H   0  0  0  0  0  0  0  0  0  0  0  0
   -0.0130    1.4290   -0.0370 N   0  0  0  0  0  0  0  0  0  0  0  0
    0.8500    1.9810   -0.1010 H   0  0  0  0  0  0  0  0  0  0  0  0
   -0.8810    1.9730   -0.0130 H   0  0  0  0  0  0  0  0  0  0  0  0
  1 19  1  1  0  0  0
  1  2  1  0  0  0  0
  1 12  1  0  0  0  0
  2  3  2  0  0  0  0
  2  7  1  0  0  0  0
  3  4  1  0  0  0  0
  4  5  2  0  0  0  0
  5  6  1  0  0  0  0
  6  7  2  0  0  0  0
  7  8  1  0  0  0  0
  8 10  1  0  0  0  0
  8  9  1  0  0  0  0
 11 10  2  0  0  0  0
 12 10  1  0  0  0  0
 13 12  1  0  0  0  0
 14 13  1  0  0  0  0
 15 14  1  0  0  0  0
 16 15  1  0  0  0  0
 17 14  1  0  0  0  0
 17 18  1  0  0  0  0
 19 21  1  0  0  0  0
 20 19  1  0  0  0  0
M  END
>  <REMARK>
  5 active torsions:
  status: ('A' for Active; 'I' for Inactive)
    1  A    between atoms: N_1  and  C_2 
    2  A    between atoms: N_13  and  C_14 
    3  A    between atoms: C_14  and  C_15 
    4  A    between atoms: C_15  and  O_16 
    5  A    between atoms: C_15  and  O_17 

>  <TORSDO>
F 5

$$$$
C:\Users\siddh\.mgltools\PyRx\Ligands\ZINC000003844360_uff_E=156.18.pdbqt
 OpenBabel04182118313D

 18 18  0  0  1  0  0  0  0  0999 V2000
    0.7570   -0.4660   -1.2360 C   0  0  0  0  0  0  0  0  0  0  0  0
    0.0830   -1.2760   -2.1580 C   0  0  0  0  0  3  0  0  0  0  0  0
    0.7100   -1.7270   -3.2830 N   0  0  0  0  0  0  0  0  0  0  0  0
   -0.0350   -2.5640   -4.2330 C   0  0  0  0  0  1  0  0  0  0  0  0
    2.0230   -1.3830   -3.5340 C   0  0  0  0  0  0  0  0  0  0  0  0
    2.5710   -1.7810   -4.5520 O   0  0  0  0  0  0  0  0  0  0  0  0
    2.7190   -0.5930   -2.6400 N   0  0  0  0  0  0  0  0  0  0  0  0
    4.1220   -0.2200   -2.8820 C   0  0  0  0  0  1  0  0  0  0  0  0
    2.1000   -0.1350   -1.4980 C   0  0  0  0  0  0  0  0  0  0  0  0
    2.7230    0.5640   -0.7150 O   0  0  0  0  0  0  0  0  0  0  0  0
    0.0240    0.0370    0.0060 C   0  0  2  0  0  3  0  0  0  0  0  0
   -0.0470    1.5780   -0.0230 C   0  0  0  0  0  1  0  0  0  0  0  0
    0.7010   -0.4970    1.2920 C   0  0  0  0  0  2  0  0  0  0  0  0
   -0.0470   -0.1900    2.5650 C   0  0  0  0  0  3  0  0  0  0  0  0
   -1.2440    0.4270    2.5450 O   0  0  0  0  0  0  0  0  0  0  0  0
   -1.6910    0.6080    3.3480 H   0  0  0  0  0  0  0  0  0  0  0  0
    0.4850   -0.5570    3.7450 O   0  0  0  0  0  0  0  0  0  0  0  0
    1.3170   -0.9870    3.7710 H   0  0  0  0  0  0  0  0  0  0  0  0
  1 11  1  0  0  0  0
  2  1  2  0  0  0  0
  3  2  1  0  0  0  0
  4  3  1  0  0  0  0
  5  3  1  0  0  0  0
  5  7  1  0  0  0  0
  6  5  2  0  0  0  0
  7  9  1  0  0  0  0
  8  7  1  0  0  0  0
  9  1  1  0  0  0  0
  9 10  2  0  0  0  0
 11 12  1  1  0  0  0
 11 13  1  0  0  0  0
 13 14  1  0  0  0  0
 14 17  1  0  0  0  0
 15 14  1  0  0  0  0
 15 16  1  0  0  0  0
 17 18  1  0  0  0  0
M  END
>  <REMARK>
  5 active torsions:
  status: ('A' for Active; 'I' for Inactive)
    1  A    between atoms: C_2  and  C_3 
    2  A    between atoms: C_2  and  C_7 
    3  A    between atoms: C_3  and  C_4 
    4  A    between atoms: C_4  and  O_5 
    5  A    between atoms: C_4  and  O_6 

>  <TORSDO>
F 5

$$$$
C:\Users\siddh\.mgltools\PyRx\Ligands\ZINC000003844356_uff_E=204.24.pdbqt
 OpenBabel04182118313D

 19 19  0  0  1  0  0  0  0  0999 V2000
    0.0080    1.5300    0.0070 C   0  0  0  0  0  1  0  0  0  0  0  0
    0.0500    0.0060   -0.0000 C   0  0  0  0  0  0  0  0  0  0  0  0
   -1.1690   -0.7280   -0.0020 C   0  0  0  0  0  0  0  0  0  0  0  0
   -1.1010   -2.1370   -0.0020 C   0  0  0  0  0  0  0  0  0  0  0  0
   -2.1280   -2.7970   -0.0050 O   0  0  0  0  0  0  0  0  0  0  0  0
    0.1140   -2.7800   -0.0040 N   0  0  0  0  0  0  0  0  0  0  0  0
    0.1610   -4.2540   -0.0210 C   0  0  0  0  0  1  0  0  0  0  0  0
    1.2840   -2.0530   -0.0150 C   0  0  0  0  0  0  0  0  0  0  0  0
    2.3560   -2.6410   -0.0340 O   0  0  0  0  0  0  0  0  0  0  0  0
    1.2560   -0.6670   -0.0090 N   0  0  0  0  0  0  0  0  0  0  0  0
    2.5290    0.0810   -0.0150 C   0  0  0  0  0  1  0  0  0  0  0  0
   -2.5370   -0.0170   -0.0140 C   0  0  1  0  0  3  0  0  0  0  0  0
   -3.2990   -0.3660   -1.3080 C   0  0  0  0  0  1  0  0  0  0  0  0
   -3.3420   -0.3450    1.2670 C   0  0  0  0  0  2  0  0  0  0  0  0
   -4.5990    0.4710    1.4340 C   0  0  0  0  0  3  0  0  0  0  0  0
   -4.9250    1.4460    0.5620 O   0  0  0  0  0  0  0  0  0  0  0  0
   -5.7110    1.9400    0.6850 H   0  0  0  0  0  0  0  0  0  0  0  0
   -5.3990    0.2390    2.4910 O   0  0  0  0  0  0  0  0  0  0  0  0
   -5.1820   -0.4360    3.1030 H   0  0  0  0  0  0  0  0  0  0  0  0
  2  1  1  0  0  0  0
  3  4  1  0  0  0  0
  3  2  2  0  0  0  0
  5  4  2  0  0  0  0
  6  4  1  0  0  0  0
  7  6  1  0  0  0  0
  8 10  1  0  0  0  0
  8  6  1  0  0  0  0
  9  8  2  0  0  0  0
 10  2  1  0  0  0  0
 11 10  1  0  0  0  0
 12 13  1  6  0  0  0
 12  3  1  0  0  0  0
 12 14  1  0  0  0  0
 14 15  1  0  0  0  0
 15 18  1  0  0  0  0
 16 17  1  0  0  0  0
 16 15  1  0  0  0  0
 18 19  1  0  0  0  0
M  END
>  <REMARK>
  5 active torsions:
  status: ('A' for Active; 'I' for Inactive)
    1  A    between atoms: C_3  and  C_4 
    2  A    between atoms: C_4  and  C_6 
    3  A    between atoms: C_6  and  C_7 
    4  A    between atoms: C_7  and  O_8 
    5  A    between atoms: C_7  and  O_9 

>  <TORSDO>
F 5

$$$$
C:\Users\siddh\.mgltools\PyRx\Ligands\ZINC000003844355_uff_E=148.48.pdbqt
 OpenBabel04182118313D

 17 17  0  0  0  0  0  0  0  0999 V2000
   -0.0460    1.4990    0.0140 C   0  0  0  0  0  1  0  0  0  0  0  0
    0.0190    0.0320    0.0110 N   0  0  0  0  0  0  0  0  0  0  0  0
   -1.1490   -0.6680    0.0250 C   0  0  0  0  0  3  0  0  0  0  0  0
   -1.1440   -2.0630    0.0030 C   0  0  0  0  0  0  0  0  0  0  0  0
    0.0840   -2.7340   -0.0250 C   0  0  0  0  0  0  0  0  0  0  0  0
    0.1070   -3.9560   -0.0480 O   0  0  0  0  0  0  0  0  0  0  0  0
    1.2640   -2.0170   -0.0170 N   0  0  0  0  0  0  0  0  0  0  0  0
    2.5560   -2.7210   -0.0340 C   0  0  0  0  0  1  0  0  0  0  0  0
    1.2290   -0.6350   -0.0090 C   0  0  0  0  0  0  0  0  0  0  0  0
    2.2740   -0.0020   -0.0220 O   0  0  0  0  0  0  0  0  0  0  0  0
   -2.4460   -2.8210    0.0030 C   0  0  0  0  0  2  0  0  0  0  0  0
   -2.8370   -3.2160   -1.4240 C   0  0  0  0  0  2  0  0  0  0  0  0
   -4.1270   -3.9880   -1.4570 C   0  0  0  0  0  3  0  0  0  0  0  0
   -4.7920   -4.2780   -0.3210 O   0  0  0  0  0  0  0  0  0  0  0  0
   -5.5950   -4.7600   -0.3580 H   0  0  0  0  0  0  0  0  0  0  0  0
   -4.6250   -4.3970   -2.6390 O   0  0  0  0  0  0  0  0  0  0  0  0
   -4.1690   -4.2000   -3.4330 H   0  0  0  0  0  0  0  0  0  0  0  0
  2  1  1  0  0  0  0
  2  3  1  0  0  0  0
  4 11  1  0  0  0  0
  4  3  2  0  0  0  0
  5  7  1  0  0  0  0
  5  4  1  0  0  0  0
  6  5  2  0  0  0  0
  7  9  1  0  0  0  0
  8  7  1  0  0  0  0
  9  2  1  0  0  0  0
 10  9  2  0  0  0  0
 12 11  1  0  0  0  0
 13 12  1  0  0  0  0
 13 14  1  0  0  0  0
 15 14  1  0  0  0  0
 16 13  1  0  0  0  0
 17 16  1  0  0  0  0
M  END
>  <REMARK>
  5 active torsions:
  status: ('A' for Active; 'I' for Inactive)
    1  A    between atoms: C_4  and  C_5 
    2  A    between atoms: C_5  and  C_6 
    3  A    between atoms: C_6  and  C_7 
    4  A    between atoms: C_7  and  O_8 
    5  A    between atoms: C_7  and  O_9 

>  <TORSDO>
F 5

$$$$
C:\Users\siddh\.mgltools\PyRx\Ligands\ZINC000003832517_uff_E=135.16.pdbqt
 OpenBabel04182118313D

 22 22  0  0  1  0  0  0  0  0999 V2000
   -1.3060    3.2110   -0.6190 N   0  0  0  0  0  0  0  0  0  0  0  0
   -1.2230    3.2850   -1.9820 C   0  0  0  0  0  0  0  0  0  0  0  0
   -1.2800    2.2580   -2.6430 O   0  0  0  0  0  0  0  0  0  0  0  0
   -1.3220    4.0690   -0.0580 H   0  0  0  0  0  0  0  0  0  0  0  0
   -1.4120    1.9370    0.0840 C   0  0  1  0  0  3  0  0  0  0  0  0
   -0.1020    1.1950    0.0000 C   0  0  0  0  0  3  0  0  0  0  0  0
   -0.0560   -0.0410   -0.5320 O   0  0  0  0  0  0  0  0  0  0  0  0
    0.0120   -0.5400   -1.3220 H   0  0  0  0  0  0  0  0  0  0  0  0
    1.0290    1.7640    0.4630 O   0  0  0  0  0  0  0  0  0  0  0  0
    1.0040    2.6230    0.8340 H   0  0  0  0  0  0  0  0  0  0  0  0
   -1.7920    2.1650    1.5540 C   0  0  0  0  0  2  0  0  0  0  0  0
   -3.4290    2.9680    1.6410 S   0  0  0  0  0  0  0  0  0  0  0  0
   -3.4400    2.9850    3.0450 H   0  0  0  0  0  0  0  0  0  0  0  0
   -1.0780    4.6000   -2.6950 C   0  0  0  0  0  0  0  0  0  0  0  0
   -1.1260    4.6310   -4.1030 C   0  0  0  0  0  3  0  0  0  0  0  0
   -0.9670    5.8350   -4.7900 C   0  0  0  0  0  0  0  0  0  0  0  0
   -0.7620    7.0130   -4.0680 C   0  0  0  0  0  2  0  0  0  0  0  0
   -0.7210    6.9800   -2.7120 N   0  0  0  0  0  0  0  0  0  0  0  0
   -0.8730    5.8220   -2.0150 C   0  0  0  0  0  3  0  0  0  0  0  0
   -0.5730    7.8500   -2.1990 H   0  0  0  0  0  0  0  0  0  0  0  0
   -1.0050    5.8490   -6.1380 O   0  0  0  0  0  0  0  0  0  0  0  0
   -0.8790    6.6660   -6.6420 H   0  0  0  0  0  0  0  0  0  0  0  0
  1  4  1  0  0  0  0
  1  5  1  0  0  0  0
  2  1  1  0  0  0  0
  3  2  2  0  0  0  0
  5 11  1  1  0  0  0
  6  5  1  0  0  0  0
  6  9  1  0  0  0  0
  7  6  1  0  0  0  0
  8  7  1  0  0  0  0
  9 10  1  0  0  0  0
 11 12  1  0  0  0  0
 12 13  1  0  0  0  0
 14 19  2  0  0  0  0
 14  2  1  0  0  0  0
 15 14  1  0  0  0  0
 16 15  2  0  0  0  0
 16 17  1  0  0  0  0
 17 18  1  0  0  0  0
 18 20  1  0  0  0  0
 18 19  1  0  0  0  0
 21 16  1  0  0  0  0
 22 21  1  0  0  0  0
M  END
>  <REMARK>
  8 active torsions:
  status: ('A' for Active; 'I' for Inactive)
    1  A    between atoms: O_1  and  C_2 
    2  A    between atoms: C_2  and  O_3 
    3  A    between atoms: C_2  and  C_4 
    4  A    between atoms: C_4  and  C_5 
    5  A    between atoms: C_4  and  N_7 
    6  A    between atoms: C_5  and  S_6 
       I    between atoms: N_7  and  C_8 
    7  A    between atoms: C_8  and  C_10 
    8  A    between atoms: C_15  and  O_16 

>  <TORSDO>
F 8

$$$$
C:\Users\siddh\.mgltools\PyRx\Ligands\ZINC000003798622_uff_E=541.96.pdbqt
 OpenBabel04182118313D

 19 20  0  0  1  0  0  0  0  0999 V2000
   -1.2520    1.9590    0.0010 C   0  0  1  0  0  3  0  0  0  0  0  0
   -2.2060    1.3990    0.9680 N   0  0  0  0  0  0  0  0  0  0  0  0
   -2.0200    1.4390    2.3830 C   0  0  0  0  0  0  0  0  0  0  0  0
   -2.6770    0.5000    3.2030 C   0  0  0  0  0  3  0  0  0  0  0  0
   -2.5050    0.5360    4.5910 C   0  0  0  0  0  3  0  0  0  0  0  0
   -1.6970    1.5170    5.1740 C   0  0  0  0  0  3  0  0  0  0  0  0
   -1.0560    2.4640    4.3670 C   0  0  0  0  0  3  0  0  0  0  0  0
   -1.2190    2.4170    2.9790 C   0  0  0  0  0  0  0  0  0  0  0  0
   -0.4770    3.6340    1.9270 S   0  0  0  0  0  0  0  0  0  0  0  0
   -0.8910    5.0780    2.2470 O   0  0  0  0  0  0  0  0  0  0  0  0
    1.0580    3.6760    1.9430 O   0  0  0  0  0  0  0  0  0  0  0  0
   -0.9510    3.3820    0.2380 N   0  0  0  0  0  0  0  0  0  0  0  0
   -2.9910    0.8490    0.5910 H   0  0  0  0  0  0  0  0  0  0  0  0
   -1.8020    3.9570    0.0410 H   0  0  0  0  0  0  0  0  0  0  0  0
   -0.0010    1.1180   -0.0400 C   0  0  0  0  0  3  0  0  0  0  0  0
   -0.0970   -0.2090   -0.2460 O   0  0  0  0  0  0  0  0  0  0  0  0
   -0.2710   -1.0500   -0.6190 H   0  0  0  0  0  0  0  0  0  0  0  0
    1.2190    1.6810    0.0740 O   0  0  0  0  0  0  0  0  0  0  0  0
    1.2970    2.6030    0.2180 H   0  0  0  0  0  0  0  0  0  0  0  0
  1 15  1  1  0  0  0
  1 12  1  0  0  0  0
  1  2  1  0  0  0  0
  2  3  1  0  0  0  0
  3  8  2  0  0  0  0
  3  4  1  0  0  0  0
  4  5  2  0  0  0  0
  5  6  1  0  0  0  0
  7  6  2  0  0  0  0
  8  7  1  0  0  0  0
  9 11  2  0  0  0  0
  9 10  2  0  0  0  0
  9  8  1  0  0  0  0
 12  9  1  0  0  0  0
 13  2  1  0  0  0  0
 14 12  1  0  0  0  0
 15 18  1  0  0  0  0
 16 15  1  0  0  0  0
 17 16  1  0  0  0  0
 18 19  1  0  0  0  0
M  END
>  <REMARK>
  3 active torsions:
  status: ('A' for Active; 'I' for Inactive)
    1  A    between atoms: O_1  and  C_2 
    2  A    between atoms: C_2  and  O_3 
    3  A    between atoms: C_2  and  C_4 

>  <TORSDO>
F 3

$$$$
C:\Users\siddh\.mgltools\PyRx\Ligands\ZINC000003643731_uff_E=373.87.pdbqt
 OpenBabel04182118313D

 18 19  0  0  1  0  0  0  0  0999 V2000
    0.0490   -0.1230    0.0030 O   0  0  0  0  0  0  0  0  0  0  0  0
   -0.0130    1.2240    0.0100 C   0  0  0  0  0  3  0  0  0  0  0  0
    0.1650   -1.0530   -0.0110 H   0  0  0  0  0  0  0  0  0  0  0  0
    1.1270    1.9390    0.0000 O   0  0  0  0  0  0  0  0  0  0  0  0
    1.0930    2.8750    0.0050 H   0  0  0  0  0  0  0  0  0  0  0  0
   -1.3370    1.9380    0.0290 C   0  0  0  0  0  2  0  0  0  0  0  0
   -2.5060    0.9530    0.0480 C   0  0  0  0  0  2  0  0  0  0  0  0
   -3.7750    1.6700    0.0530 N   0  0  0  0  0  0  0  0  0  0  0  0
   -4.4890    2.0670   -1.0300 C   0  0  0  0  0  0  0  0  0  0  0  0
   -5.6140    2.6950   -0.6410 N   0  0  0  0  0  0  0  0  0  0  0  0
   -4.1590    1.8820   -2.1900 O   0  0  0  0  0  0  0  0  0  0  0  0
   -5.5640    2.6690    0.7020 C   0  0  1  0  0  3  0  0  0  0  0  0
   -6.6240    3.2560   -1.3450 C   0  0  0  0  0  3  0  0  0  0  0  0
   -4.4450    2.0450    1.1430 N   0  0  0  0  0  0  0  0  0  0  0  0
   -6.5810    3.2400    1.4680 C   0  0  0  0  0  3  0  0  0  0  0  0
   -4.1710    1.8920    2.1140 H   0  0  0  0  0  0  0  0  0  0  0  0
   -7.6540    3.8380    0.7780 C   0  0  0  0  0  3  0  0  0  0  0  0
   -7.6770    3.8460   -0.6340 C   0  0  0  0  0  3  0  0  0  0  0  0
  1  2  1  0  0  0  0
  2  6  1  0  0  0  0
  3  1  1  0  0  0  0
  4  5  1  0  0  0  0
  4  2  1  0  0  0  0
  6  7  1  0  0  0  0
  7  8  1  0  0  0  0
  8 14  1  0  0  0  0
  9 10  1  0  0  0  0
  9  8  1  0  0  0  0
 10 12  1  0  0  0  0
 11  9  2  0  0  0  0
 12 14  1  0  0  0  0
 12 15  1  6  0  0  0
 13 10  1  0  0  0  0
 13 18  2  0  0  0  0
 14 16  1  0  0  0  0
 17 15  2  0  0  0  0
 18 17  1  0  0  0  0
M  END
>  <REMARK>
  4 active torsions:
  status: ('A' for Active; 'I' for Inactive)
    1  A    between atoms: C_2  and  O_3 
    2  A    between atoms: C_2  and  C_4 
    3  A    between atoms: C_4  and  C_5 
    4  A    between atoms: C_5  and  N_6 

>  <TORSDO>
F 4

$$$$
C:\Users\siddh\.mgltools\PyRx\Ligands\ZINC000003416035_uff_E=1501.05.pdbqt
 OpenBabel04182118313D

 18 19  0  0  1  0  0  0  0  0999 V2000
    0.0230    1.5440    0.0090 C   0  0  0  0  0  1  0  0  0  0  0  0
   -0.0110    0.0070   -0.0220 C   0  0  2  0  0  0  0  0  0  0  0  0
   -1.3710   -0.4820    0.1890 N   0  0  0  0  0  0  0  0  0  0  0  0
   -1.4290   -1.2030    1.3250 C   0  0  0  0  0  0  0  0  0  0  0  0
   -2.4470   -1.7410    1.7310 O   0  0  0  0  0  0  0  0  0  0  0  0
   -0.2460   -1.2750    1.9440 N   0  0  0  0  0  0  0  0  0  0  0  0
    0.6420   -0.5800    1.2130 C   0  0  0  0  0  0  0  0  0  0  0  0
    1.8180   -0.4460    1.5220 O   0  0  0  0  0  0  0  0  0  0  0  0
   -2.1740   -0.3090   -0.4340 H   0  0  0  0  0  0  0  0  0  0  0  0
    0.0380   -1.9860    3.1790 C   0  0  0  0  0  2  0  0  0  0  0  0
    0.5600   -3.3670    2.8970 C   0  0  0  0  0  3  0  0  0  0  0  0
    0.6960   -3.8070    1.6300 O   0  0  0  0  0  0  0  0  0  0  0  0
    1.0220   -4.6700    1.4660 H   0  0  0  0  0  0  0  0  0  0  0  0
    0.8780   -4.1810    3.9200 O   0  0  0  0  0  0  0  0  0  0  0  0
    0.7870   -3.8810    4.8030 H   0  0  0  0  0  0  0  0  0  0  0  0
    0.6790   -0.5820   -1.2850 C   0  0  0  0  0  3  0  0  0  0  0  0
    0.0490   -0.0870   -2.5840 C   0  0  0  0  0  2  0  0  0  0  0  0
   -0.0560   -1.5550   -2.2070 C   0  0  0  0  0  2  0  0  0  0  0  0
  2  1  1  1  0  0  0
  2  3  1  0  0  0  0
  2  7  1  0  0  0  0
  3  4  1  0  0  0  0
  4  5  2  0  0  0  0
  4  6  1  0  0  0  0
  6 10  1  0  0  0  0
  7  8  2  0  0  0  0
  7  6  1  0  0  0  0
  9  3  1  0  0  0  0
 11 10  1  0  0  0  0
 11 14  1  0  0  0  0
 12 11  1  0  0  0  0
 13 12  1  0  0  0  0
 14 15  1  0  0  0  0
 16  2  1  0  0  0  0
 17 18  1  0  0  0  0
 17 16  1  0  0  0  0
 18 16  1  0  0  0  0
M  END
>  <REMARK>
  5 active torsions:
  status: ('A' for Active; 'I' for Inactive)
    1  A    between atoms: C_2  and  C_3 
    2  A    between atoms: N_9  and  C_10 
    3  A    between atoms: C_10  and  C_11 
    4  A    between atoms: C_11  and  O_12 
    5  A    between atoms: C_11  and  O_13 

>  <TORSDO>
F 5

$$$$
C:\Users\siddh\.mgltools\PyRx\Ligands\ZINC000003407843_uff_E=191.80.pdbqt
 OpenBabel04182118313D

 23 24  0  0  1  0  0  0  0  0999 V2000
   -1.1980   -0.7900   -0.0030 C   0  0  2  0  0  3  0  0  0  0  0  0
   -2.3820   -0.1180   -0.0000 N   0  0  0  0  0  0  0  0  0  0  0  0
   -2.3570    0.9020   -0.0030 H   0  0  0  0  0  0  0  0  0  0  0  0
   -3.5730   -0.7160    0.0070 N   0  0  0  0  0  0  0  0  0  0  0  0
   -3.6680   -2.0900    0.0160 C   0  0  0  0  0  0  0  0  0  0  0  0
   -4.7640   -2.6290    0.0330 O   0  0  0  0  0  0  0  0  0  0  0  0
   -2.4970   -2.8650    0.0080 C   0  0  0  0  0  0  0  0  0  0  0  0
   -2.5730   -4.2740    0.0130 C   0  0  0  0  0  3  0  0  0  0  0  0
   -1.4120   -5.0430    0.0070 C   0  0  0  0  0  3  0  0  0  0  0  0
   -0.1690   -4.4260   -0.0020 C   0  0  0  0  0  3  0  0  0  0  0  0
   -0.0690   -3.0360   -0.0050 C   0  0  0  0  0  3  0  0  0  0  0  0
   -1.2300   -2.2210   -0.0010 C   0  0  0  0  0  0  0  0  0  0  0  0
   -4.7750    0.1280    0.0390 C   0  0  0  0  0  2  0  0  0  0  0  0
   -5.1810    0.4220    1.4540 C   0  0  0  0  0  3  0  0  0  0  0  0
   -4.4750   -0.0740    2.4900 O   0  0  0  0  0  0  0  0  0  0  0  0
   -4.7370    0.1160    3.3690 H   0  0  0  0  0  0  0  0  0  0  0  0
   -6.2580    1.1930    1.6940 O   0  0  0  0  0  0  0  0  0  0  0  0
   -6.7540    1.5400    0.9780 H   0  0  0  0  0  0  0  0  0  0  0  0
    0.0520    0.0500   -0.0040 C   0  0  0  0  0  0  0  0  0  0  0  0
   -0.0330    1.4040    0.0060 N   0  0  0  0  0  0  0  0  0  0  0  0
    0.8260    1.9730    0.0060 H   0  0  0  0  0  0  0  0  0  0  0  0
   -0.9420    1.8870    0.0150 H   0  0  0  0  0  0  0  0  0  0  0  0
    1.1600   -0.4560   -0.0110 O   0  0  0  0  0  0  0  0  0  0  0  0
  1 19  1  1  0  0  0
  1 12  1  0  0  0  0
  1  2  1  0  0  0  0
  2  4  1  0  0  0  0
  3  2  1  0  0  0  0
  4  5  1  0  0  0  0
  4 13  1  0  0  0  0
  5  6  2  0  0  0  0
  7  8  1  0  0  0  0
  7  5  1  0  0  0  0
  9  8  2  0  0  0  0
 10  9  1  0  0  0  0
 11 10  2  0  0  0  0
 11 12  1  0  0  0  0
 12  7  2  0  0  0  0
 13 14  1  0  0  0  0
 14 17  1  0  0  0  0
 14 15  1  0  0  0  0
 15 16  1  0  0  0  0
 18 17  1  0  0  0  0
 19 20  1  0  0  0  0
 20 21  1  0  0  0  0
 20 22  1  0  0  0  0
 23 19  2  0  0  0  0
M  END
>  <REMARK>
  5 active torsions:
  status: ('A' for Active; 'I' for Inactive)
       I    between atoms: N_1  and  C_2 
    1  A    between atoms: C_2  and  C_4 
    2  A    between atoms: N_7  and  C_8 
    3  A    between atoms: C_8  and  C_9 
    4  A    between atoms: C_9  and  O_10 
    5  A    between atoms: C_9  and  O_11 

>  <TORSDO>
F 5

$$$$
C:\Users\siddh\.mgltools\PyRx\Ligands\ZINC000003324531_uff_E=810.32.pdbqt
 OpenBabel04182118313D

 18 19  0  0  0  0  0  0  0  0999 V2000
   -1.8600   -1.0960   -1.6950 C   0  0  0  0  0  0  0  0  0  0  0  0
   -2.6810   -0.1450   -2.3630 C   0  0  0  0  0  3  0  0  0  0  0  0
   -3.0690   -0.3490   -3.7040 C   0  0  0  0  0  3  0  0  0  0  0  0
   -2.6210   -1.5040   -4.3330 C   0  0  0  0  0  0  0  0  0  0  0  0
   -2.8480   -1.9350   -5.5910 N   0  0  0  0  0  0  0  0  0  0  0  0
   -3.4020   -1.4650   -6.3080 H   0  0  0  0  0  0  0  0  0  0  0  0
   -2.2060   -3.0970   -5.7130 N   0  0  0  0  0  2  0  0  0  0  0  0
   -1.5910   -3.3950   -4.5730 N   0  0  0  0  0  0  0  0  0  0  0  0
   -1.8390   -2.4130   -3.7010 C   0  0  0  0  0  0  0  0  0  0  0  0
   -1.4290   -2.2570   -2.3790 C   0  0  0  0  0  3  0  0  0  0  0  0
   -1.4000   -0.8380    0.0290 S   0  0  0  0  0  0  0  0  0  0  0  0
   -1.3220   -2.1670    0.7950 O   0  0  0  0  0  0  0  0  0  0  0  0
   -2.5140   -0.1310    0.8160 O   0  0  0  0  0  0  0  0  0  0  0  0
    0.0980    0.0270    0.4670 N   0  0  0  0  0  0  0  0  0  0  0  0
    0.0280    1.4310    0.0450 C   0  0  0  0  0  1  0  0  0  0  0  0
    1.2960   -0.6740   -0.0240 C   0  0  0  0  0  1  0  0  0  0  0  0
   -0.8530   -4.5090   -4.3650 O   0  0  0  0  0  0  0  0  0  0  0  0
   -0.7460   -5.1350   -5.0540 H   0  0  0  0  0  0  0  0  0  0  0  0
  1 11  1  0  0  0  0
  2  1  1  0  0  0  0
  3  2  2  0  0  0  0
  4  3  1  0  0  0  0
  4  9  2  0  0  0  0
  5  4  1  0  0  0  0
  6  5  1  0  0  0  0
  7  5  1  0  0  0  0
  7  8  1  0  0  0  0
  8 17  1  0  0  0  0
  8  9  1  0  0  0  0
  9 10  1  0  0  0  0
 10  1  2  0  0  0  0
 11 14  1  0  0  0  0
 11 12  2  0  0  0  0
 11 13  2  0  0  0  0
 15 14  1  0  0  0  0
 16 14  1  0  0  0  0
 18 17  1  0  0  0  0
M  END
>  <REMARK>
  3 active torsions:
  status: ('A' for Active; 'I' for Inactive)
    1  A    between atoms: N_2  and  S_4 
    2  A    between atoms: S_4  and  C_7 
    3  A    between atoms: N_14  and  O_15 

>  <TORSDO>
F 3

$$$$
C:\Users\siddh\.mgltools\PyRx\Ligands\ZINC000003261550_uff_E=148.84.pdbqt
 OpenBabel04182118313D

 19 20  0  0  0  0  0  0  0  0999 V2000
    0.0110   -0.1250    0.0000 O   0  0  0  0  0  0  0  0  0  0  0  0
   -0.0280    1.2230    0.0010 C   0  0  0  0  0  3  0  0  0  0  0  0
    0.0850   -1.0590   -0.0000 H   0  0  0  0  0  0  0  0  0  0  0  0
    1.1200    1.9230    0.0020 O   0  0  0  0  0  0  0  0  0  0  0  0
    1.0980    2.8590    0.0030 H   0  0  0  0  0  0  0  0  0  0  0  0
   -1.3380    1.9460    0.0040 C   0  0  0  0  0  2  0  0  0  0  0  0
   -2.4490    0.9860    0.0050 N   0  0  0  0  0  0  0  0  0  0  0  0
   -2.9600    0.5190    1.2010 C   0  0  0  0  0  0  0  0  0  0  0  0
   -4.0110   -0.4070    1.1950 C   0  0  0  0  0  0  0  0  0  0  0  0
   -2.4930    0.9110    2.2610 O   0  0  0  0  0  0  0  0  0  0  0  0
   -4.5260   -0.8540   -0.0400 C   0  0  0  0  0  0  0  0  0  0  0  0
   -4.5600   -0.8970    2.3960 C   0  0  0  0  0  3  0  0  0  0  0  0
   -3.9650   -0.3570   -1.2260 C   0  0  0  0  0  0  0  0  0  0  0  0
   -5.5830   -1.7850   -0.0550 C   0  0  0  0  0  3  0  0  0  0  0  0
   -2.9390    0.5510   -1.1660 N   0  0  0  0  0  0  0  0  0  0  0  0
   -4.3810   -0.7240   -2.3140 O   0  0  0  0  0  0  0  0  0  0  0  0
   -2.5310    0.9050   -2.0620 H   0  0  0  0  0  0  0  0  0  0  0  0
   -6.1190   -2.2590    1.1450 C   0  0  0  0  0  3  0  0  0  0  0  0
   -5.6090   -1.8170    2.3660 C   0  0  0  0  0  3  0  0  0  0  0  0
  1  3  1  0  0  0  0
  1  2  1  0  0  0  0
  2  4  1  0  0  0  0
  2  6  1  0  0  0  0
  4  5  1  0  0  0  0
  6  7  1  0  0  0  0
  7  8  1  0  0  0  0
  8 10  2  0  0  0  0
  9  8  1  0  0  0  0
  9 12  1  0  0  0  0
 11  9  2  0  0  0  0
 13 15  1  0  0  0  0
 13 11  1  0  0  0  0
 14 11  1  0  0  0  0
 14 18  2  0  0  0  0
 15  7  1  0  0  0  0
 16 13  2  0  0  0  0
 17 15  1  0  0  0  0
 18 19  1  0  0  0  0
 19 12  2  0  0  0  0
M  END
>  <REMARK>
  3 active torsions:
  status: ('A' for Active; 'I' for Inactive)
    1  A    between atoms: C_2  and  O_3 
    2  A    between atoms: C_2  and  C_4 
    3  A    between atoms: C_4  and  N_5 

>  <TORSDO>
F 3

$$$$
C:\Users\siddh\.mgltools\PyRx\Ligands\ZINC000003207457_uff_E=71.48.pdbqt
 OpenBabel04182118313D

 21 21  0  0  1  0  0  0  0  0999 V2000
    0.0460    1.5140    0.0050 C   0  0  0  0  0  1  0  0  0  0  0  0
    0.0010    0.0180    0.0300 C   0  0  1  0  0  3  0  0  0  0  0  0
    0.1930   -0.6770   -1.1220 N   0  0  0  0  0  0  0  0  0  0  0  0
    0.3730   -0.1770   -1.9920 H   0  0  0  0  0  0  0  0  0  0  0  0
    0.1470   -2.0340   -1.1200 C   0  0  1  0  0  3  0  0  0  0  0  0
    0.3320   -2.6770   -2.2210 N   0  0  0  0  0  0  0  0  0  0  0  0
    0.5040   -2.1460   -3.0750 H   0  0  0  0  0  0  0  0  0  0  0  0
   -0.0820   -2.6950    0.0450 N   0  0  0  0  0  0  0  0  0  0  0  0
   -0.1160   -3.7150    0.0500 H   0  0  0  0  0  0  0  0  0  0  0  0
   -0.2650   -2.0100    1.2010 C   0  0  1  0  0  3  0  0  0  0  0  0
   -0.4850   -2.7140    2.4070 N   0  0  0  0  0  0  0  0  0  0  0  0
   -0.2280   -0.6500    1.1940 N   0  0  0  0  0  0  0  0  0  0  0  0
   -0.5220   -3.7440    2.4060 H   0  0  0  0  0  0  0  0  0  0  0  0
   -0.5980   -2.2060    3.2960 H   0  0  0  0  0  0  0  0  0  0  0  0
   -0.3680   -0.1230    2.0860 H   0  0  0  0  0  0  0  0  0  0  0  0
    0.3070   -4.0580   -2.2890 N   0  0  0  0  0  0  0  0  0  0  0  0
    0.0950   -4.6200   -1.4510 H   0  0  0  0  0  0  0  0  0  0  0  0
    0.6060   -4.7450   -3.5010 C   0  0  0  0  0  0  0  0  0  0  0  0
    0.9170   -4.0300   -4.7110 S   0  0  0  0  0  0  0  0  0  0  0  0
    0.6430   -6.5360   -3.5120 S   0  0  0  0  0  0  0  0  0  0  0  0
    0.3210   -7.0040   -2.2760 H   0  0  0  0  0  0  0  0  0  0  0  0
  2  1  1  1  0  0  0
  2 12  1  0  0  0  0
  3  5  1  0  0  0  0
  3  2  1  0  0  0  0
  4  3  1  0  0  0  0
  5  6  1  1  0  0  0
  5  8  1  0  0  0  0
  7  6  1  0  0  0  0
  8  9  1  0  0  0  0
  8 10  1  0  0  0  0
 10 11  1  1  0  0  0
 11 14  1  0  0  0  0
 12 10  1  0  0  0  0
 12 15  1  0  0  0  0
 13 11  1  0  0  0  0
 16  6  1  0  0  0  0
 16 17  1  0  0  0  0
 18 16  1  0  0  0  0
 19 18  2  0  0  0  0
 20 18  1  0  0  0  0
 20 21  1  0  0  0  0
M  END
>  <REMARK>
  3 active torsions:
  status: ('A' for Active; 'I' for Inactive)
       I    between atoms: C_5  and  N_6 
    1  A    between atoms: N_6  and  N_8 
    2  A    between atoms: N_8  and  C_9 
    3  A    between atoms: C_9  and  S_11 
       I    between atoms: C_14  and  N_15 

>  <TORSDO>
F 3

$$$$
C:\Users\siddh\.mgltools\PyRx\Ligands\ZINC000003167798_uff_E=108.19.pdbqt
 OpenBabel04182118313D

 17 16  0  0  1  0  0  0  0  0999 V2000
    0.6600   -2.0780   -1.1340 C   0  0  2  0  0  0  0  0  0  0  0  0
    0.5170   -0.5630   -1.1660 C   0  0  0  0  0  0  0  0  0  0  0  0
    0.9600    0.0720   -2.1130 O   0  0  0  0  0  0  0  0  0  0  0  0
   -0.1150    0.0800   -0.1490 O   0  0  0  0  0  0  0  0  0  0  0  0
   -0.2270    1.4550   -0.1020 C   0  0  0  0  0  1  0  0  0  0  0  0
    0.6500   -2.5540    0.1940 O   0  0  0  0  0  0  0  0  0  0  0  0
    1.4320   -2.1910    0.6790 H   0  0  0  0  0  0  0  0  0  0  0  0
    1.9580   -2.5290   -1.8770 C   0  0  0  0  0  3  0  0  0  0  0  0
    3.2510   -1.9230   -1.3730 C   0  0  0  0  0  0  0  0  0  0  0  0
    3.2720   -1.0580   -0.3390 O   0  0  0  0  0  0  0  0  0  0  0  0
    4.0860   -0.6980   -0.0470 H   0  0  0  0  0  0  0  0  0  0  0  0
    4.4050   -2.2300   -1.9930 O   0  0  0  0  0  0  0  0  0  0  0  0
    4.4050   -2.8300   -2.7130 H   0  0  0  0  0  0  0  0  0  0  0  0
   -0.5760   -2.6940   -1.8280 C   0  0  0  0  0  0  0  0  0  0  0  0
   -0.6630   -2.2790   -3.1470 F   0  0  0  0  0  0  0  0  0  0  0  0
   -0.5020   -4.0770   -1.8010 F   0  0  0  0  0  0  0  0  0  0  0  0
   -1.7320   -2.3090   -1.1680 F   0  0  0  0  0  0  0  0  0  0  0  0
  1  8  1  6  0  0  0
  1  6  1  0  0  0  0
  2  1  1  0  0  0  0
  2  4  1  0  0  0  0
  3  2  2  0  0  0  0
  4  5  1  0  0  0  0
  6  7  1  0  0  0  0
  8  9  2  0  0  0  0
  9 10  1  0  0  0  0
 10 11  1  0  0  0  0
 12  9  1  0  0  0  0
 13 12  1  0  0  0  0
 14 16  1  0  0  0  0
 14 17  1  0  0  0  0
 14  1  1  0  0  0  0
 15 14  1  0  0  0  0
M  END
>  <REMARK>
  8 active torsions:
  status: ('A' for Active; 'I' for Inactive)
    1  A    between atoms: O_2  and  C_3 
    2  A    between atoms: C_3  and  C_5 
    3  A    between atoms: C_5  and  O_6 
    4  A    between atoms: C_5  and  C_7 
    5  A    between atoms: C_5  and  C_11 
    6  A    between atoms: C_7  and  C_8 
    7  A    between atoms: C_8  and  O_9 
    8  A    between atoms: C_8  and  O_10 

>  <TORSDO>
F 8

$$$$
C:\Users\siddh\.mgltools\PyRx\Ligands\ZINC000003167796_uff_E=108.72.pdbqt
 OpenBabel04182118313D

 17 16  0  0  1  0  0  0  0  0999 V2000
    0.6860   -2.1670   -1.2240 C   0  0  1  0  0  0  0  0  0  0  0  0
    0.6650   -0.6490   -1.0970 C   0  0  0  0  0  0  0  0  0  0  0  0
    1.1780    0.0410   -1.9670 O   0  0  0  0  0  0  0  0  0  0  0  0
    0.0840   -0.0630   -0.0170 O   0  0  0  0  0  0  0  0  0  0  0  0
    0.0000    1.3090    0.1170 C   0  0  0  0  0  1  0  0  0  0  0  0
   -0.4140   -2.7460   -0.5590 O   0  0  0  0  0  0  0  0  0  0  0  0
   -1.2550   -2.4140   -0.9610 H   0  0  0  0  0  0  0  0  0  0  0  0
    0.7070   -2.5990   -2.7240 C   0  0  0  0  0  3  0  0  0  0  0  0
   -0.4450   -2.0920   -3.5680 C   0  0  0  0  0  0  0  0  0  0  0  0
   -1.4000   -1.2910   -3.0550 O   0  0  0  0  0  0  0  0  0  0  0  0
   -2.1020   -0.9910   -3.5990 H   0  0  0  0  0  0  0  0  0  0  0  0
   -0.5030   -2.4270   -4.8700 O   0  0  0  0  0  0  0  0  0  0  0  0
    0.1550   -2.9830   -5.2400 H   0  0  0  0  0  0  0  0  0  0  0  0
    1.9530   -2.6920   -0.5110 C   0  0  0  0  0  0  0  0  0  0  0  0
    1.9000   -2.3810    0.8390 F   0  0  0  0  0  0  0  0  0  0  0  0
    2.0400   -4.0680   -0.6330 F   0  0  0  0  0  0  0  0  0  0  0  0
    3.0960   -2.1250   -1.0490 F   0  0  0  0  0  0  0  0  0  0  0  0
  1  8  1  6  0  0  0
  1  2  1  0  0  0  0
  1  6  1  0  0  0  0
  1 14  1  0  0  0  0
  2  4  1  0  0  0  0
  3  2  2  0  0  0  0
  4  5  1  0  0  0  0
  7  6  1  0  0  0  0
  9 10  1  0  0  0  0
  9  8  2  0  0  0  0
 11 10  1  0  0  0  0
 12  9  1  0  0  0  0
 13 12  1  0  0  0  0
 14 15  1  0  0  0  0
 16 14  1  0  0  0  0
 17 14  1  0  0  0  0
M  END
>  <REMARK>
  8 active torsions:
  status: ('A' for Active; 'I' for Inactive)
    1  A    between atoms: O_2  and  C_3 
    2  A    between atoms: C_3  and  C_5 
    3  A    between atoms: C_5  and  O_6 
    4  A    between atoms: C_5  and  C_7 
    5  A    between atoms: C_5  and  C_11 
    6  A    between atoms: C_7  and  C_8 
    7  A    between atoms: C_8  and  O_9 
    8  A    between atoms: C_8  and  O_10 

>  <TORSDO>
F 8

$$$$
C:\Users\siddh\.mgltools\PyRx\Ligands\ZINC000003165238_uff_E=120.46.pdbqt
 OpenBabel04182118313D

 15 14  0  0  0  0  0  0  0  0999 V2000
    2.3360   -2.6580   -0.6010 P   0  0  0  0  0  4  0  0  0  0  0  0
    0.6260   -2.0680   -1.1000 C   0  0  0  0  0  2  0  0  0  0  0  0
    0.6170   -0.5720   -1.0570 C   0  0  0  0  0  0  0  0  0  0  0  0
    1.3070    0.0570   -1.8460 O   0  0  0  0  0  0  0  0  0  0  0  0
   -0.1170    0.0730   -0.1150 O   0  0  0  0  0  0  0  0  0  0  0  0
   -0.1170    1.4470    0.0150 C   0  0  0  0  0  1  0  0  0  0  0  0
    3.5320   -1.8990   -1.6190 O   0  0  0  0  0  0  0  0  0  0  0  0
    3.4880   -0.9360   -1.5080 H   0  0  0  0  0  0  0  0  0  0  0  0
    2.5970   -2.2600    1.0760 O   0  0  0  0  0  0  0  0  0  0  0  0
    2.5340   -1.3000    1.1950 H   0  0  0  0  0  0  0  0  0  0  0  0
    2.4550   -4.5130   -0.8440 C   0  0  0  0  0  2  0  0  0  0  0  0
    3.8250   -4.9500   -0.4290 C   0  0  0  0  0  0  0  0  0  0  0  0
    4.1540   -4.8790    0.7460 O   0  0  0  0  0  0  0  0  0  0  0  0
    4.7110   -5.3570   -1.3740 O   0  0  0  0  0  0  0  0  0  0  0  0
    6.0170   -5.6890   -1.0860 C   0  0  0  0  0  1  0  0  0  0  0  0
  1  9  1  0  0  0  0
  2  3  1  0  0  0  0
  2  1  1  0  0  0  0
  3  5  1  0  0  0  0
  4  3  2  0  0  0  0
  5  6  1  0  0  0  0
  7  8  1  0  0  0  0
  7  1  1  0  0  0  0
  9 10  1  0  0  0  0
 11  1  1  0  0  0  0
 11 12  1  0  0  0  0
 12 13  2  0  0  0  0
 14 15  1  0  0  0  0
 14 12  1  0  0  0  0
M  END
>  <REMARK>
  8 active torsions:
  status: ('A' for Active; 'I' for Inactive)
    1  A    between atoms: O_2  and  C_3 
    2  A    between atoms: C_3  and  C_5 
    3  A    between atoms: C_5  and  P_6 
    4  A    between atoms: P_6  and  O_7 
    5  A    between atoms: P_6  and  O_8 
    6  A    between atoms: P_6  and  C_9 
    7  A    between atoms: C_9  and  C_10 
    8  A    between atoms: C_10  and  O_12 

>  <TORSDO>
F 8

$$$$
C:\Users\siddh\.mgltools\PyRx\Ligands\ZINC000003148796_uff_E=866.32.pdbqt
 OpenBabel04182118313D

 20 21  0  0  1  0  0  0  0  0999 V2000
    0.0450    1.4840   -0.1090 C   0  0  0  0  0  1  0  0  0  0  0  0
   -0.1940    0.0610   -0.0800 N   0  0  0  0  0  0  0  0  0  0  0  0
    0.0580   -0.8210   -1.0840 C   0  0  0  0  0  0  0  0  0  0  0  0
    0.4510   -0.4990   -2.1960 O   0  0  0  0  0  0  0  0  0  0  0  0
   -0.2040   -2.1020   -0.7030 N   0  0  0  0  0  0  0  0  0  0  0  0
   -0.1480   -3.2750   -1.5480 C   0  0  0  0  0  1  0  0  0  0  0  0
   -0.9460   -1.9790    0.5210 C   0  0  1  0  0  3  0  0  0  0  0  0
   -1.0450   -2.7910    1.7060 N   0  0  0  0  0  0  0  0  0  0  0  0
   -0.9340   -3.8030    1.7770 H   0  0  0  0  0  0  0  0  0  0  0  0
   -1.3050   -1.9540    2.6640 C   0  0  2  0  0  3  0  0  0  0  0  0
   -1.1170   -0.6020    2.2550 N   0  0  0  0  0  0  0  0  0  0  0  0
   -0.2920   -0.7390    1.1030 C   0  0  2  0  0  3  0  0  0  0  0  0
   -1.0600    0.1830    2.9190 H   0  0  0  0  0  0  0  0  0  0  0  0
   -1.6280   -2.4030    4.3780 S   0  0  0  0  0  0  0  0  0  0  0  0
   -1.9970   -4.1700    4.1080 C   0  0  0  0  0  2  0  0  0  0  0  0
   -2.4240   -4.8300    5.3890 C   0  0  0  0  0  3  0  0  0  0  0  0
   -2.5310   -4.1250    6.5330 O   0  0  0  0  0  0  0  0  0  0  0  0
   -2.7990   -4.5520    7.3230 H   0  0  0  0  0  0  0  0  0  0  0  0
   -2.7010   -6.1470    5.3960 O   0  0  0  0  0  0  0  0  0  0  0  0
   -2.6300   -6.6450    4.6050 H   0  0  0  0  0  0  0  0  0  0  0  0
  1  2  1  0  0  0  0
  3  5  1  0  0  0  0
  3  2  1  0  0  0  0
  4  3  2  0  0  0  0
  6  5  1  0  0  0  0
  7  5  1  6  0  0  0
  7 12  1  0  0  0  0
  7  8  1  0  0  0  0
  8  9  1  0  0  0  0
  8 10  1  0  0  0  0
 10 14  1  1  0  0  0
 11 10  1  0  0  0  0
 11 13  1  0  0  0  0
 12  2  1  6  0  0  0
 12 11  1  0  0  0  0
 15 14  1  0  0  0  0
 15 16  1  0  0  0  0
 16 19  1  0  0  0  0
 16 17  1  0  0  0  0
 17 18  1  0  0  0  0
 20 19  1  0  0  0  0
M  END
>  <REMARK>
  5 active torsions:
  status: ('A' for Active; 'I' for Inactive)
    1  A    between atoms: C_10  and  S_11 
    2  A    between atoms: S_11  and  C_12 
    3  A    between atoms: C_12  and  C_13 
    4  A    between atoms: C_13  and  O_14 
    5  A    between atoms: C_13  and  O_15 

>  <TORSDO>
F 5

$$$$
C:\Users\siddh\.mgltools\PyRx\Ligands\ZINC000003123571_uff_E=102.52.pdbqt
 OpenBabel04182118313D

 18 17  0  0  1  0  0  0  0  0999 V2000
    2.1000   -0.0740   -1.2700 C   0  0  0  0  0  0  0  0  0  0  0  0
    2.7630    0.4890   -0.4110 O   0  0  0  0  0  0  0  0  0  0  0  0
    2.6710   -0.3880   -2.4660 N   0  0  0  0  0  0  0  0  0  0  0  0
    2.0860   -0.8120   -3.2030 H   0  0  0  0  0  0  0  0  0  0  0  0
    4.0740   -0.0820   -2.7330 C   0  0  2  0  0  3  0  0  0  0  0  0
    4.4060   -0.2210   -4.2260 C   0  0  0  0  0  2  0  0  0  0  0  0
    4.2360   -1.5420   -4.6570 O   0  0  0  0  0  0  0  0  0  0  0  0
    4.5320   -1.5560   -5.6050 H   0  0  0  0  0  0  0  0  0  0  0  0
    4.9900   -0.9580   -1.9030 C   0  0  0  0  0  3  0  0  0  0  0  0
    4.4880   -1.9360   -1.1220 O   0  0  0  0  0  0  0  0  0  0  0  0
    5.0650   -2.4710   -0.6130 H   0  0  0  0  0  0  0  0  0  0  0  0
    6.3220   -0.7680   -1.9490 O   0  0  0  0  0  0  0  0  0  0  0  0
    6.6810   -0.0910   -2.4890 H   0  0  0  0  0  0  0  0  0  0  0  0
    0.7830   -0.3660   -1.0490 O   0  0  0  0  0  0  0  0  0  0  0  0
    0.0280    0.0210    0.0600 C   0  0  0  0  0  0  0  0  0  0  0  0
   -0.0870    1.5590    0.1110 C   0  0  0  0  0  1  0  0  0  0  0  0
    0.6350   -0.5250    1.3720 C   0  0  0  0  0  1  0  0  0  0  0  0
   -1.3840   -0.5680   -0.0940 C   0  0  0  0  0  1  0  0  0  0  0  0
  1 14  1  0  0  0  0
  1  2  2  0  0  0  0
  3  1  1  0  0  0  0
  4  3  1  0  0  0  0
  5  6  1  6  0  0  0
  5  3  1  0  0  0  0
  5  9  1  0  0  0  0
  7  6  1  0  0  0  0
  8  7  1  0  0  0  0
  9 10  1  0  0  0  0
 10 11  1  0  0  0  0
 12  9  1  0  0  0  0
 13 12  1  0  0  0  0
 14 15  1  0  0  0  0
 15 16  1  0  0  0  0
 15 17  1  0  0  0  0
 18 15  1  0  0  0  0
M  END
>  <REMARK>
  8 active torsions:
  status: ('A' for Active; 'I' for Inactive)
    1  A    between atoms: C_2  and  O_5 
    2  A    between atoms: O_5  and  C_6 
       I    between atoms: C_6  and  N_8 
    3  A    between atoms: N_8  and  C_9 
    4  A    between atoms: C_9  and  C_10 
    5  A    between atoms: C_9  and  C_12 
    6  A    between atoms: C_10  and  O_11 
    7  A    between atoms: C_12  and  O_13 
    8  A    between atoms: C_12  and  O_14 

>  <TORSDO>
F 8

$$$$
C:\Users\siddh\.mgltools\PyRx\Ligands\ZINC000003110006_uff_E=171.97.pdbqt
 OpenBabel04182118313D

 16 16  0  0  0  0  0  0  0  0999 V2000
    0.8500   -1.9250   -1.4620 C   0  0  0  0  0  0  0  0  0  0  0  0
    1.5120   -2.3950   -2.6170 C   0  0  0  0  0  0  0  0  0  0  0  0
    1.6500   -3.7360   -2.8450 N   0  0  0  0  0  0  0  0  0  0  0  0
    2.3520   -4.2010   -4.0520 C   0  0  0  0  0  1  0  0  0  0  0  0
    1.1530   -4.6540   -1.9420 C   0  0  0  0  0  0  0  0  0  0  0  0
    1.2950   -5.8500   -2.1530 O   0  0  0  0  0  0  0  0  0  0  0  0
    0.4980   -4.2300   -0.8050 N   0  0  0  0  0  0  0  0  0  0  0  0
   -0.0450   -5.1960    0.1660 C   0  0  0  0  0  1  0  0  0  0  0  0
    0.3420   -2.8850   -0.5570 C   0  0  0  0  0  0  0  0  0  0  0  0
   -0.2400   -2.5350    0.4570 O   0  0  0  0  0  0  0  0  0  0  0  0
    0.7010   -0.4430   -1.2250 C   0  0  0  0  0  0  0  0  0  0  0  0
    1.1550    0.3490   -2.0400 O   0  0  0  0  0  0  0  0  0  0  0  0
    0.0020    0.1010    0.0020 C   0  0  0  0  0  2  0  0  0  0  0  0
   -0.0360    1.6210    0.0390 C   0  0  0  0  0  1  0  0  0  0  0  0
    2.0210   -1.5170   -3.5060 O   0  0  0  0  0  0  0  0  0  0  0  0
    1.9320   -0.5960   -3.3590 H   0  0  0  0  0  0  0  0  0  0  0  0
  1 11  1  0  0  0  0
  1  9  1  0  0  0  0
  2  1  2  0  0  0  0
  3  2  1  0  0  0  0
  3  5  1  0  0  0  0
  4  3  1  0  0  0  0
  5  7  1  0  0  0  0
  6  5  2  0  0  0  0
  7  9  1  0  0  0  0
  7  8  1  0  0  0  0
  9 10  2  0  0  0  0
 11 13  1  0  0  0  0
 12 11  2  0  0  0  0
 13 14  1  0  0  0  0
 15 16  1  0  0  0  0
 15  2  1  0  0  0  0
M  END
>  <REMARK>
  3 active torsions:
  status: ('A' for Active; 'I' for Inactive)
    1  A    between atoms: C_2  and  C_3 
    2  A    between atoms: C_3  and  C_5 
    3  A    between atoms: C_6  and  O_7 

>  <TORSDO>
F 3

$$$$
C:\Users\siddh\.mgltools\PyRx\Ligands\ZINC000003086243_uff_E=495.86.pdbqt
 OpenBabel04182118313D

 18 18  0  0  0  0  0  0  0  0999 V2000
   -0.0260   -2.6130    0.1010 N   0  0  0  0  0  0  0  0  0  0  0  0
   -0.9940   -2.2950    0.1600 H   0  0  0  0  0  0  0  0  0  0  0  0
    0.5910   -2.0370   -1.0020 N   0  0  0  0  0  0  0  0  0  0  0  0
    1.0130   -2.6250   -1.7400 H   0  0  0  0  0  0  0  0  0  0  0  0
    0.6280   -0.6170   -1.0950 C   0  0  0  0  0  0  0  0  0  0  0  0
    1.2630    0.0060   -2.2310 S   0  0  0  0  0  0  0  0  0  0  0  0
    0.0300    0.1710   -0.0510 N   0  0  0  0  0  0  0  0  0  0  0  0
    0.0110    1.6170   -0.0430 C   0  0  0  0  0  1  0  0  0  0  0  0
   -0.4140   -0.3100    0.7450 H   0  0  0  0  0  0  0  0  0  0  0  0
    0.0190   -4.3770    0.0530 S   0  0  0  0  0  0  0  0  0  0  0  0
   -0.6200   -4.7830   -1.2840 O   0  0  0  0  0  0  0  0  0  0  0  0
    1.5000   -4.7610   -0.0870 O   0  0  0  0  0  0  0  0  0  0  0  0
   -0.7960   -5.0150    1.5080 C   0  0  0  0  0  0  0  0  0  0  0  0
   -2.1780   -5.2370    1.4930 C   0  0  0  0  0  3  0  0  0  0  0  0
   -2.8300   -5.6540    2.6570 C   0  0  0  0  0  3  0  0  0  0  0  0
   -2.1030   -5.8450    3.8370 C   0  0  0  0  0  3  0  0  0  0  0  0
   -0.7220   -5.6230    3.8510 C   0  0  0  0  0  3  0  0  0  0  0  0
   -0.0680   -5.2070    2.6880 C   0  0  0  0  0  3  0  0  0  0  0  0
  1  2  1  0  0  0  0
  3  1  1  0  0  0  0
  4  3  1  0  0  0  0
  5  3  1  0  0  0  0
  5  7  1  0  0  0  0
  6  5  2  0  0  0  0
  7  8  1  0  0  0  0
  7  9  1  0  0  0  0
 10  1  1  0  0  0  0
 10 13  1  0  0  0  0
 11 10  2  0  0  0  0
 12 10  2  0  0  0  0
 13 18  1  0  0  0  0
 14 13  2  0  0  0  0
 14 15  1  0  0  0  0
 15 16  2  0  0  0  0
 16 17  1  0  0  0  0
 18 17  2  0  0  0  0
M  END
>  <REMARK>
  5 active torsions:
  status: ('A' for Active; 'I' for Inactive)
    1  A    between atoms: N_2  and  C_3 
    2  A    between atoms: C_3  and  N_5 
    3  A    between atoms: N_5  and  N_6 
    4  A    between atoms: N_6  and  S_7 
    5  A    between atoms: S_7  and  C_10 

>  <TORSDO>
F 5

$$$$
C:\Users\siddh\.mgltools\PyRx\Ligands\ZINC000002961684_uff_E=162.25.pdbqt
 OpenBabel04182118313D

 18 19  0  0  0  0  0  0  0  0999 V2000
   -1.3540   -0.6970    0.0170 C   0  0  0  0  0  0  0  0  0  0  0  0
   -1.3900   -2.1160    0.1090 C   0  0  0  0  0  0  0  0  0  0  0  0
   -2.6200   -2.7910    0.0880 C   0  0  0  0  0  0  0  0  0  0  0  0
   -2.7030   -4.1930    0.2000 C   0  0  0  0  0  3  0  0  0  0  0  0
   -3.9510   -4.8250    0.1740 C   0  0  0  0  0  3  0  0  0  0  0  0
   -5.1180   -4.0700    0.0250 C   0  0  0  0  0  3  0  0  0  0  0  0
   -5.0420   -2.6810   -0.0870 C   0  0  0  0  0  3  0  0  0  0  0  0
   -3.8000   -2.0380   -0.0470 C   0  0  0  0  0  0  0  0  0  0  0  0
   -3.7460   -0.7190   -0.1320 O   0  0  0  0  0  0  0  0  0  0  0  0
   -2.6110   -0.0290   -0.0980 C   0  0  0  0  0  0  0  0  0  0  0  0
   -2.6810    1.1800   -0.1720 O   0  0  0  0  0  0  0  0  0  0  0  0
   -0.0090    0.0210    0.0470 C   0  0  0  0  0  0  0  0  0  0  0  0
    0.1260    1.3750    0.0060 N   0  0  0  0  0  0  0  0  0  0  0  0
    1.0700    1.7890    0.0290 H   0  0  0  0  0  0  0  0  0  0  0  0
   -0.6570    2.0290   -0.0410 H   0  0  0  0  0  0  0  0  0  0  0  0
    1.0120   -0.6460    0.1110 O   0  0  0  0  0  0  0  0  0  0  0  0
   -0.2520   -2.8290    0.2220 O   0  0  0  0  0  0  0  0  0  0  0  0
    0.5760   -2.3910    0.2380 H   0  0  0  0  0  0  0  0  0  0  0  0
  1 12  1  0  0  0  0
  1  2  2  0  0  0  0
  2 17  1  0  0  0  0
  3  2  1  0  0  0  0
  3  4  1  0  0  0  0
  5  4  2  0  0  0  0
  6  5  1  0  0  0  0
  7  8  1  0  0  0  0
  7  6  2  0  0  0  0
  8  3  2  0  0  0  0
  9 10  1  0  0  0  0
  9  8  1  0  0  0  0
 10  1  1  0  0  0  0
 11 10  2  0  0  0  0
 12 16  2  0  0  0  0
 13 14  1  0  0  0  0
 13 12  1  0  0  0  0
 15 13  1  0  0  0  0
 17 18  1  0  0  0  0
M  END
>  <REMARK>
  2 active torsions:
  status: ('A' for Active; 'I' for Inactive)
       I    between atoms: N_1  and  C_2 
    1  A    between atoms: C_2  and  C_4 
    2  A    between atoms: C_5  and  O_6 

>  <TORSDO>
F 2

$$$$
C:\Users\siddh\.mgltools\PyRx\Ligands\ZINC000002927960_uff_E=213.55.pdbqt
 OpenBabel04182118313D

 21 22  0  0  0  0  0  0  0  0999 V2000
    0.0540   -0.0190    0.0030 O   0  0  0  0  0  0  0  0  0  0  0  0
    0.0370    1.2000    0.0100 C   0  0  0  0  0  0  0  0  0  0  0  0
   -1.1630    1.8680    0.0290 N   0  0  0  0  0  0  0  0  0  0  0  0
   -1.2020    3.2280    0.0370 C   0  0  0  0  0  0  0  0  0  0  0  0
   -2.4290    3.9070    0.0580 C   0  0  0  0  0  3  0  0  0  0  0  0
   -2.4530    5.3020    0.0660 C   0  0  0  0  0  3  0  0  0  0  0  0
   -1.2560    6.0240    0.0520 C   0  0  0  0  0  0  0  0  0  0  0  0
   -0.0290    5.3570    0.0330 C   0  0  0  0  0  3  0  0  0  0  0  0
    0.0060    3.9600    0.0250 C   0  0  0  0  0  0  0  0  0  0  0  0
    1.1970    3.2990    0.0060 N   0  0  0  0  0  0  0  0  0  0  0  0
    1.2350    1.9280   -0.0020 C   0  0  0  0  0  0  0  0  0  0  0  0
    2.3090    1.3490   -0.0190 O   0  0  0  0  0  0  0  0  0  0  0  0
   -2.0550    1.3210    0.0380 H   0  0  0  0  0  0  0  0  0  0  0  0
    2.0940    3.8380   -0.0020 H   0  0  0  0  0  0  0  0  0  0  0  0
   -1.2920    7.8240    0.0630 S   0  0  0  0  0  0  0  0  0  0  0  0
    0.0990    8.4090   -0.7750 O   0  0  0  0  0  0  0  0  0  0  0  0
    0.0760    8.1020   -1.6950 H   0  0  0  0  0  0  0  0  0  0  0  0
   -2.7270    8.3520   -0.7360 O   0  0  0  0  0  0  0  0  0  0  0  0
   -2.7170    8.0440   -1.6560 H   0  0  0  0  0  0  0  0  0  0  0  0
   -1.2790    8.3550    1.7050 O   0  0  0  0  0  0  0  0  0  0  0  0
   -0.4660    8.0500    2.1370 H   0  0  0  0  0  0  0  0  0  0  0  0
  1  2  2  0  0  0  0
  2  3  1  0  0  0  0
  3  4  1  0  0  0  0
  3 13  1  0  0  0  0
  4  5  1  0  0  0  0
  5  6  2  0  0  0  0
  7 15  1  0  0  0  0
  7  6  1  0  0  0  0
  8  7  2  0  0  0  0
  9  8  1  0  0  0  0
  9  4  2  0  0  0  0
 10  9  1  0  0  0  0
 11 10  1  0  0  0  0
 11  2  1  0  0  0  0
 12 11  2  0  0  0  0
 14 10  1  0  0  0  0
 15 20  1  0  0  0  0
 16 15  1  0  0  0  0
 17 16  1  0  0  0  0
 18 15  1  0  0  0  0
 19 18  1  0  0  0  0
 20 21  1  0  0  0  0
M  END
>  <REMARK>
  4 active torsions:
  status: ('A' for Active; 'I' for Inactive)
    1  A    between atoms: C_7  and  S_8 
    2  A    between atoms: S_8  and  O_9 
    3  A    between atoms: S_8  and  O_10 
    4  A    between atoms: S_8  and  O_11 

>  <TORSDO>
F 4

$$$$
C:\Users\siddh\.mgltools\PyRx\Ligands\ZINC000002768361_uff_E=364.41.pdbqt
 OpenBabel04182118313D

 18 19  0  0  0  0  0  0  0  0999 V2000
   -1.2620   -2.1130    0.0820 N   0  0  0  0  0  0  0  0  0  0  0  0
   -0.1560   -2.8840    0.1920 C   0  0  0  0  0  0  0  0  0  0  0  0
    0.9850   -2.4510    0.2350 O   0  0  0  0  0  0  0  0  0  0  0  0
   -0.5580   -4.2940    0.2530 C   0  0  0  0  0  0  0  0  0  0  0  0
    0.1690   -5.4780    0.3590 C   0  0  0  0  0  3  0  0  0  0  0  0
   -0.5480   -6.6920    0.4050 C   0  0  0  0  0  3  0  0  0  0  0  0
   -1.9620   -6.6930    0.3460 C   0  0  0  0  0  3  0  0  0  0  0  0
   -2.6680   -5.4830    0.2390 C   0  0  0  0  0  3  0  0  0  0  0  0
   -1.9360   -4.3030    0.1920 C   0  0  0  0  0  0  0  0  0  0  0  0
   -2.3580   -2.9120    0.0910 C   0  0  0  0  0  0  0  0  0  0  0  0
   -3.5130   -2.5180    0.0710 O   0  0  0  0  0  0  0  0  0  0  0  0
   -1.2580   -0.7300    0.0480 N   0  0  0  0  0  0  0  0  0  0  0  0
   -2.1490   -0.0010   -0.6780 C   0  0  0  0  0  0  0  0  0  0  0  0
   -2.2220    1.3370   -0.5050 N   0  0  0  0  0  0  0  0  0  0  0  0
   -2.8760   -0.5420   -1.4980 O   0  0  0  0  0  0  0  0  0  0  0  0
   -2.8970    1.8940   -1.0510 H   0  0  0  0  0  0  0  0  0  0  0  0
   -1.6260    1.8080    0.1900 H   0  0  0  0  0  0  0  0  0  0  0  0
   -0.5790   -0.2500    0.5750 H   0  0  0  0  0  0  0  0  0  0  0  0
  1 10  1  0  0  0  0
  1  2  1  0  0  0  0
  2  3  2  0  0  0  0
  2  4  1  0  0  0  0
  4  5  1  0  0  0  0
  5  6  2  0  0  0  0
  7  6  1  0  0  0  0
  8  7  2  0  0  0  0
  9  8  1  0  0  0  0
  9  4  2  0  0  0  0
 10  9  1  0  0  0  0
 11 10  2  0  0  0  0
 12  1  1  0  0  0  0
 12 18  1  0  0  0  0
 13 14  1  0  0  0  0
 13 12  1  0  0  0  0
 14 17  1  0  0  0  0
 15 13  2  0  0  0  0
 16 14  1  0  0  0  0
M  END
>  <REMARK>
  1 active torsions:
  status: ('A' for Active; 'I' for Inactive)
       I    between atoms: N_1  and  C_2 
       I    between atoms: C_2  and  N_4 
    1  A    between atoms: N_4  and  N_5 

>  <TORSDO>
F 1

$$$$
C:\Users\siddh\.mgltools\PyRx\Ligands\ZINC000002765676_uff_E=442.44.pdbqt
 OpenBabel04182118313D

 22 23  0  0  0  0  0  0  0  0999 V2000
   -0.0590   -0.0110   -0.0270 C   0  0  0  0  0  0  0  0  0  0  0  0
   -1.2590   -0.7490    0.0940 C   0  0  0  0  0  3  0  0  0  0  0  0
   -1.1790   -2.1350    0.1140 C   0  0  0  0  0  0  0  0  0  0  0  0
    0.0150   -2.7930    0.0280 C   0  0  0  0  0  0  0  0  0  0  0  0
    1.2220   -2.1160   -0.0810 C   0  0  0  0  0  3  0  0  0  0  0  0
    1.1950   -0.7020   -0.1070 C   0  0  0  0  0  0  0  0  0  0  0  0
   -0.1990   -4.1200    0.0660 N   0  0  0  0  0  0  0  0  0  0  0  0
   -1.5540   -4.2400    0.1760 C   0  0  0  0  0  0  0  0  0  0  0  0
   -2.1370   -5.3060    0.2370 O   0  0  0  0  0  0  0  0  0  0  0  0
   -2.1790   -3.0280    0.2070 N   0  0  0  0  0  0  0  0  0  0  0  0
    0.5100   -4.8870    0.0210 H   0  0  0  0  0  0  0  0  0  0  0  0
   -3.2040   -2.8370    0.2830 H   0  0  0  0  0  0  0  0  0  0  0  0
    2.7780    0.1900   -0.2400 S   0  0  0  0  0  0  0  0  0  0  0  0
    3.0010    0.6510   -1.8870 O   0  0  0  0  0  0  0  0  0  0  0  0
    2.2780    1.2380   -2.1600 H   0  0  0  0  0  0  0  0  0  0  0  0
    2.7590    1.5790    0.7870 O   0  0  0  0  0  0  0  0  0  0  0  0
    2.0450    2.1750    0.5120 H   0  0  0  0  0  0  0  0  0  0  0  0
    4.0540   -0.8550    0.2670 O   0  0  0  0  0  0  0  0  0  0  0  0
    4.0750   -1.6410   -0.3030 H   0  0  0  0  0  0  0  0  0  0  0  0
   -0.1300    1.4060   -0.0780 N   0  0  0  0  0  0  0  0  0  0  0  0
    0.6920    1.9810   -0.3000 H   0  0  0  0  0  0  0  0  0  0  0  0
   -1.0310    1.8870    0.0560 H   0  0  0  0  0  0  0  0  0  0  0  0
  1  2  1  0  0  0  0
  2  3  2  0  0  0  0
  3 10  1  0  0  0  0
  4  7  1  0  0  0  0
  4  3  1  0  0  0  0
  5  4  2  0  0  0  0
  6  5  1  0  0  0  0
  6  1  2  0  0  0  0
  7  8  1  0  0  0  0
  8 10  1  0  0  0  0
  8  9  2  0  0  0  0
 10 12  1  0  0  0  0
 11  7  1  0  0  0  0
 13  6  1  0  0  0  0
 13 18  1  0  0  0  0
 13 16  1  0  0  0  0
 14 13  1  0  0  0  0
 15 14  1  0  0  0  0
 17 16  1  0  0  0  0
 19 18  1  0  0  0  0
 20  1  1  0  0  0  0
 20 22  1  0  0  0  0
 21 20  1  0  0  0  0
M  END
>  <REMARK>
  5 active torsions:
  status: ('A' for Active; 'I' for Inactive)
    1  A    between atoms: N_1  and  C_2 
    2  A    between atoms: C_7  and  S_8 
    3  A    between atoms: S_8  and  O_9 
    4  A    between atoms: S_8  and  O_10 
    5  A    between atoms: S_8  and  O_11 

>  <TORSDO>
F 5

$$$$
C:\Users\siddh\.mgltools\PyRx\Ligands\ZINC000002750614_uff_E=124.86.pdbqt
 OpenBabel04182118313D

 17 17  0  0  0  0  0  0  0  0999 V2000
   -4.6820    0.1510   -0.9960 C   0  0  0  0  0  0  0  0  0  0  0  0
   -5.4900    0.0140   -1.9080 O   0  0  0  0  0  0  0  0  0  0  0  0
   -4.9540    1.0050    0.0160 N   0  0  0  0  0  0  0  0  0  0  0  0
   -4.2720    1.1350    0.7840 H   0  0  0  0  0  0  0  0  0  0  0  0
   -3.3820   -0.6020   -1.0120 C   0  0  0  0  0  2  0  0  0  0  0  0
   -3.2450   -1.4920   -2.2540 C   0  0  0  0  0  2  0  0  0  0  0  0
   -1.9400   -2.2330   -2.2920 C   0  0  0  0  0  3  0  0  0  0  0  0
   -1.0270   -2.0830   -1.3110 O   0  0  0  0  0  0  0  0  0  0  0  0
   -0.7700   -1.2260   -1.0350 H   0  0  0  0  0  0  0  0  0  0  0  0
   -1.6780   -3.0580   -3.3220 O   0  0  0  0  0  0  0  0  0  0  0  0
   -2.3080   -3.1670   -4.0070 H   0  0  0  0  0  0  0  0  0  0  0  0
   -6.1280    1.7460   -0.0140 N   0  0  0  0  0  0  0  0  0  0  0  0
   -6.9170    1.5120    1.1990 C   0  0  0  0  0  2  0  0  0  0  0  0
   -8.1980    2.3460    1.0910 C   0  0  0  0  0  2  0  0  0  0  0  0
   -7.8900    3.7260    0.9570 O   0  0  0  0  0  0  0  0  0  0  0  0
   -7.1180    3.9450   -0.2130 C   0  0  0  0  0  2  0  0  0  0  0  0
   -5.8030    3.1670   -0.1420 C   0  0  0  0  0  2  0  0  0  0  0  0
  1  3  1  0  0  0  0
  2  1  2  0  0  0  0
  3  4  1  0  0  0  0
  5  1  1  0  0  0  0
  6  5  1  0  0  0  0
  7  6  1  0  0  0  0
  7  8  1  0  0  0  0
  8  9  1  0  0  0  0
 10  7  1  0  0  0  0
 11 10  1  0  0  0  0
 12  3  1  0  0  0  0
 12 13  1  0  0  0  0
 14 13  1  0  0  0  0
 15 14  1  0  0  0  0
 16 17  1  0  0  0  0
 16 15  1  0  0  0  0
 17 12  1  0  0  0  0
M  END
>  <REMARK>
  6 active torsions:
  status: ('A' for Active; 'I' for Inactive)
    1  A    between atoms: O_1  and  C_2 
    2  A    between atoms: C_2  and  O_3 
    3  A    between atoms: C_2  and  C_4 
    4  A    between atoms: C_4  and  C_5 
    5  A    between atoms: C_5  and  C_6 
       I    between atoms: C_6  and  N_8 
    6  A    between atoms: N_8  and  N_9 

>  <TORSDO>
F 6

$$$$
C:\Users\siddh\.mgltools\PyRx\Ligands\ZINC000002732042_uff_E=521.79.pdbqt
 OpenBabel04182118313D

 15 15  0  0  1  0  0  0  0  0999 V2000
    0.6350   -0.9800   -1.1270 N   0  0  0  0  0  0  0  0  0  0  0  0
   -0.0070   -0.8260   -2.4430 C   0  0  0  0  0  2  0  0  0  0  0  0
    0.4430   -1.9710   -3.3570 C   0  0  0  0  0  2  0  0  0  0  0  0
    1.9690   -1.9580   -3.4990 C   0  0  0  0  0  2  0  0  0  0  0  0
    2.6350   -2.0190   -2.1090 C   0  0  2  0  0  3  0  0  0  0  0  0
    2.1000   -0.8640   -1.2370 C   0  0  0  0  0  2  0  0  0  0  0  0
    4.1430   -1.9730   -2.1950 C   0  0  0  0  0  3  0  0  0  0  0  0
    4.7650   -1.8770   -3.3900 O   0  0  0  0  0  0  0  0  0  0  0  0
    5.7010   -1.8500   -3.4300 H   0  0  0  0  0  0  0  0  0  0  0  0
    4.8800   -2.0470   -1.0730 O   0  0  0  0  0  0  0  0  0  0  0  0
    4.4580   -2.1140   -0.2390 H   0  0  0  0  0  0  0  0  0  0  0  0
   -0.0220    0.1850    0.0470 S   0  0  0  0  0  0  0  0  0  0  0  0
    0.1160    1.9740   -0.2240 C   0  0  0  0  0  1  0  0  0  0  0  0
    0.5790   -0.2420    1.3950 O   0  0  0  0  0  0  0  0  0  0  0  0
   -1.4820   -0.2510    0.2440 O   0  0  0  0  0  0  0  0  0  0  0  0
  1 12  1  0  0  0  0
  2  1  1  0  0  0  0
  3  2  1  0  0  0  0
  4  3  1  0  0  0  0
  4  5  1  0  0  0  0
  5  7  1  6  0  0  0
  5  6  1  0  0  0  0
  6  1  1  0  0  0  0
  7 10  1  0  0  0  0
  8  7  1  0  0  0  0
  9  8  1  0  0  0  0
 10 11  1  0  0  0  0
 12 15  2  0  0  0  0
 12 14  2  0  0  0  0
 13 12  1  0  0  0  0
M  END
>  <REMARK>
  4 active torsions:
  status: ('A' for Active; 'I' for Inactive)
    1  A    between atoms: S_2  and  N_5 
    2  A    between atoms: C_9  and  C_10 
    3  A    between atoms: C_10  and  O_11 
    4  A    between atoms: C_10  and  O_12 

>  <TORSDO>
F 4

$$$$
C:\Users\siddh\.mgltools\PyRx\Ligands\ZINC000002619051_uff_E=356.27.pdbqt
 OpenBabel04182118313D

 15 15  0  0  0  0  0  0  0  0999 V2000
    2.2600   -4.1430   -3.9070 N   0  0  0  0  0  0  0  0  0  0  0  0
    1.6910   -4.3480   -5.1220 C   0  0  0  0  0  0  0  0  0  0  0  0
    0.4940   -4.2520   -5.3410 O   0  0  0  0  0  0  0  0  0  0  0  0
    2.6010   -4.6750   -6.0750 N   0  0  0  0  0  0  0  0  0  0  0  0
    3.7990   -4.6800   -5.4530 C   0  0  0  0  0  0  0  0  0  0  0  0
    4.8600   -4.9330   -6.0010 O   0  0  0  0  0  0  0  0  0  0  0  0
    3.5820   -4.3390   -4.0590 C   0  0  0  0  0  0  0  0  0  0  0  0
    4.4180   -4.2400   -3.1740 O   0  0  0  0  0  0  0  0  0  0  0  0
    2.4240   -4.8680   -7.0240 H   0  0  0  0  0  0  0  0  0  0  0  0
    1.5680   -3.7840   -2.6810 C   0  0  0  0  0  2  0  0  0  0  0  0
    1.4700   -2.2610   -2.5490 C   0  0  0  0  0  2  0  0  0  0  0  0
    0.7370   -1.8550   -1.2640 C   0  0  0  0  0  2  0  0  0  0  0  0
    0.6850   -0.4440   -1.2000 O   0  0  0  0  0  0  0  0  0  0  0  0
    0.0180   -0.0290   -0.0250 C   0  0  0  0  0  2  0  0  0  0  0  0
   -0.0160    1.4960    0.0050 C   0  0  0  0  0  1  0  0  0  0  0  0
  1 10  1  0  0  0  0
  2  1  1  0  0  0  0
  3  2  2  0  0  0  0
  4  5  1  0  0  0  0
  4  2  1  0  0  0  0
  5  7  1  0  0  0  0
  6  5  2  0  0  0  0
  7  1  1  0  0  0  0
  7  8  2  0  0  0  0
  9  4  1  0  0  0  0
 10 11  1  0  0  0  0
 11 12  1  0  0  0  0
 12 13  1  0  0  0  0
 13 14  1  0  0  0  0
 14 15  1  0  0  0  0
M  END
>  <REMARK>
  5 active torsions:
  status: ('A' for Active; 'I' for Inactive)
    1  A    between atoms: C_2  and  O_3 
    2  A    between atoms: O_3  and  C_4 
    3  A    between atoms: C_4  and  C_5 
    4  A    between atoms: C_5  and  C_6 
    5  A    between atoms: C_6  and  N_7 

>  <TORSDO>
F 5

$$$$
C:\Users\siddh\.mgltools\PyRx\Ligands\ZINC000002598902_uff_E=196.51.pdbqt
 OpenBabel04182118313D

 17 17  0  0  1  0  0  0  0  0999 V2000
    1.1000   -0.6100    1.1540 N   0  0  0  0  0  0  0  0  0  0  0  0
    2.4460   -0.1930    1.5800 C   0  0  0  0  0  2  0  0  0  0  0  0
    2.8290   -0.8830    2.8820 C   0  0  0  0  0  2  0  0  0  0  0  0
    2.6090   -2.3110    2.8220 N   0  0  0  0  0  0  0  0  0  0  0  0
    1.8180   -2.9000    1.8870 C   0  0  0  0  0  0  0  0  0  0  0  0
    1.7340   -4.1220    1.8730 O   0  0  0  0  0  0  0  0  0  0  0  0
    1.0100   -2.0850    0.8650 C   0  0  0  0  0  0  0  0  0  0  0  0
   -0.4650   -2.5490    0.9840 C   0  0  0  0  0  1  0  0  0  0  0  0
    1.5360   -2.4490   -0.5400 C   0  0  0  0  0  1  0  0  0  0  0  0
    3.0600   -2.9000    3.5380 H   0  0  0  0  0  0  0  0  0  0  0  0
    0.4640    0.3220    0.1680 C   0  0  2  0  0  3  0  0  0  0  0  0
    1.4220    0.8290   -0.9360 C   0  0  0  0  0  1  0  0  0  0  0  0
   -0.1410    1.5120    0.8770 C   0  0  0  0  0  3  0  0  0  0  0  0
   -0.8410    2.4240    0.1730 O   0  0  0  0  0  0  0  0  0  0  0  0
   -1.2170    3.1640    0.6090 H   0  0  0  0  0  0  0  0  0  0  0  0
   -0.0020    1.6700    2.2080 O   0  0  0  0  0  0  0  0  0  0  0  0
    0.4830    1.0410    2.7060 H   0  0  0  0  0  0  0  0  0  0  0  0
  1  2  1  0  0  0  0
  2  3  1  0  0  0  0
  4  3  1  0  0  0  0
  4 10  1  0  0  0  0
  5  4  1  0  0  0  0
  6  5  2  0  0  0  0
  7  8  1  0  0  0  0
  7  1  1  0  0  0  0
  7  5  1  0  0  0  0
  9  7  1  0  0  0  0
 11 12  1  6  0  0  0
 11 13  1  0  0  0  0
 11  1  1  0  0  0  0
 13 16  1  0  0  0  0
 14 15  1  0  0  0  0
 14 13  1  0  0  0  0
 16 17  1  0  0  0  0
M  END
>  <REMARK>
  4 active torsions:
  status: ('A' for Active; 'I' for Inactive)
    1  A    between atoms: C_2  and  C_3 
    2  A    between atoms: C_2  and  N_6 
    3  A    between atoms: C_3  and  O_4 
    4  A    between atoms: C_3  and  O_5 

>  <TORSDO>
F 4

$$$$
C:\Users\siddh\.mgltools\PyRx\Ligands\ZINC000002578354_uff_E=136.64.pdbqt
 OpenBabel04182118313D

 19 19  0  0  0  0  0  0  0  0999 V2000
    0.0420    1.5290    0.0290 C   0  0  0  0  0  1  0  0  0  0  0  0
    0.0210    0.0240    0.0300 C   0  0  0  0  0  0  0  0  0  0  0  0
   -1.1990   -0.6950    0.0160 C   0  0  0  0  0  0  0  0  0  0  0  0
   -1.1410   -2.1020   -0.0130 C   0  0  0  0  0  0  0  0  0  0  0  0
   -2.1660   -2.7620   -0.0270 O   0  0  0  0  0  0  0  0  0  0  0  0
    0.0730   -2.7420   -0.0200 N   0  0  0  0  0  0  0  0  0  0  0  0
    1.2380   -2.0250   -0.0090 C   0  0  0  0  0  0  0  0  0  0  0  0
    2.3100   -2.6080   -0.0240 O   0  0  0  0  0  0  0  0  0  0  0  0
    1.2060   -0.6560    0.0140 N   0  0  0  0  0  0  0  0  0  0  0  0
    0.1070   -3.7860   -0.0380 H   0  0  0  0  0  0  0  0  0  0  0  0
    2.1080   -0.1280    0.0130 H   0  0  0  0  0  0  0  0  0  0  0  0
   -2.5460    0.0050   -0.0040 C   0  0  0  0  0  2  0  0  0  0  0  0
   -3.2440   -0.2080   -1.6750 S   0  0  0  0  0  0  0  0  0  0  0  0
   -4.7510    0.7930   -1.4240 C   0  0  0  0  0  2  0  0  0  0  0  0
   -5.5440    0.8630   -2.7000 C   0  0  0  0  0  3  0  0  0  0  0  0
   -5.0980    0.2720   -3.8280 O   0  0  0  0  0  0  0  0  0  0  0  0
   -5.6030    0.3250   -4.6150 H   0  0  0  0  0  0  0  0  0  0  0  0
   -6.7160    1.5240   -2.7210 O   0  0  0  0  0  0  0  0  0  0  0  0
   -7.0340    1.9390   -1.9430 H   0  0  0  0  0  0  0  0  0  0  0  0
  1  2  1  0  0  0  0
  3  2  2  0  0  0  0
  4  3  1  0  0  0  0
  5  4  2  0  0  0  0
  6  4  1  0  0  0  0
  6  7  1  0  0  0  0
  7  9  1  0  0  0  0
  8  7  2  0  0  0  0
  9  2  1  0  0  0  0
 10  6  1  0  0  0  0
 11  9  1  0  0  0  0
 12  3  1  0  0  0  0
 13 14  1  0  0  0  0
 13 12  1  0  0  0  0
 15 14  1  0  0  0  0
 16 15  1  0  0  0  0
 17 16  1  0  0  0  0
 18 15  1  0  0  0  0
 18 19  1  0  0  0  0
M  END
>  <REMARK>
  6 active torsions:
  status: ('A' for Active; 'I' for Inactive)
    1  A    between atoms: C_3  and  C_4 
    2  A    between atoms: C_4  and  S_5 
    3  A    between atoms: S_5  and  C_6 
    4  A    between atoms: C_6  and  C_7 
    5  A    between atoms: C_7  and  O_8 
    6  A    between atoms: C_7  and  O_9 

>  <TORSDO>
F 6

$$$$
C:\Users\siddh\.mgltools\PyRx\Ligands\ZINC000002572189_uff_E=63.51.pdbqt
 OpenBabel04182118313D

 19 18  0  0  1  0  0  0  0  0999 V2000
    1.5900   -3.7870    2.5280 C   0  0  1  0  0  3  0  0  0  0  0  0
    1.4550   -2.3630    2.2470 N   0  0  0  0  0  0  0  0  0  0  0  0
    0.6440   -1.8890    1.2640 C   0  0  0  0  0  0  0  0  0  0  0  0
   -0.0050   -2.6620    0.5700 O   0  0  0  0  0  0  0  0  0  0  0  0
    2.0260   -1.6860    2.7780 H   0  0  0  0  0  0  0  0  0  0  0  0
    0.5890   -0.5510    1.0390 O   0  0  0  0  0  0  0  0  0  0  0  0
   -0.0670    0.0110   -0.0380 C   0  0  0  0  0  2  0  0  0  0  0  0
    0.0080    1.5280    0.0490 C   0  0  0  0  0  1  0  0  0  0  0  0
    2.8230   -4.0550    3.4160 C   0  0  0  0  0  2  0  0  0  0  0  0
    4.1240   -3.6620    2.7430 C   0  0  0  0  0  0  0  0  0  0  0  0
    5.3010   -3.8740    3.3720 N   0  0  0  0  0  0  0  0  0  0  0  0
    5.3250   -4.3010    4.3090 H   0  0  0  0  0  0  0  0  0  0  0  0
    6.1880   -3.6150    2.9140 H   0  0  0  0  0  0  0  0  0  0  0  0
    4.1220   -3.1630    1.6260 O   0  0  0  0  0  0  0  0  0  0  0  0
    0.3400   -4.3040    3.1910 C   0  0  0  0  0  3  0  0  0  0  0  0
   -0.3640   -5.3000    2.6220 O   0  0  0  0  0  0  0  0  0  0  0  0
   -1.1410   -5.6210    3.0360 H   0  0  0  0  0  0  0  0  0  0  0  0
   -0.0750   -3.7780    4.3600 O   0  0  0  0  0  0  0  0  0  0  0  0
    0.4120   -3.0840    4.7610 H   0  0  0  0  0  0  0  0  0  0  0  0
  1 15  1  0  0  0  0
  1  9  1  1  0  0  0
  2  1  1  0  0  0  0
  2  5  1  0  0  0  0
  3  2  1  0  0  0  0
  4  3  2  0  0  0  0
  6  3  1  0  0  0  0
  7  8  1  0  0  0  0
  7  6  1  0  0  0  0
 10 11  1  0  0  0  0
 10  9  1  0  0  0  0
 11 12  1  0  0  0  0
 13 11  1  0  0  0  0
 14 10  2  0  0  0  0
 15 18  1  0  0  0  0
 16 17  1  0  0  0  0
 16 15  1  0  0  0  0
 18 19  1  0  0  0  0
M  END
>  <REMARK>
  8 active torsions:
  status: ('A' for Active; 'I' for Inactive)
    1  A    between atoms: C_2  and  O_3 
    2  A    between atoms: O_3  and  C_4 
       I    between atoms: C_4  and  N_6 
    3  A    between atoms: N_6  and  C_7 
    4  A    between atoms: C_7  and  C_8 
    5  A    between atoms: C_7  and  C_12 
    6  A    between atoms: C_8  and  C_9 
       I    between atoms: C_9  and  N_10 
    7  A    between atoms: C_12  and  O_13 
    8  A    between atoms: C_12  and  O_14 

>  <TORSDO>
F 8

$$$$
C:\Users\siddh\.mgltools\PyRx\Ligands\ZINC000002572098_uff_E=97.28.pdbqt
 OpenBabel04182118313D

 18 17  0  0  1  0  0  0  0  0999 V2000
    0.6510   -2.6220   -2.5040 C   0  0  0  0  0  0  0  0  0  0  0  0
    1.0640   -1.8300   -3.3390 O   0  0  0  0  0  0  0  0  0  0  0  0
    0.7180   -3.9630   -2.7490 N   0  0  0  0  0  0  0  0  0  0  0  0
    0.3460   -4.6160   -2.0460 H   0  0  0  0  0  0  0  0  0  0  0  0
    0.0690   -2.1120   -1.1870 C   0  0  2  0  0  3  0  0  0  0  0  0
   -1.3800   -2.6060   -1.0130 C   0  0  0  0  0  1  0  0  0  0  0  0
    0.1150   -0.6500   -1.1070 N   0  0  0  0  0  0  0  0  0  0  0  0
   -0.1360    0.0280    0.0480 C   0  0  0  0  0  0  0  0  0  0  0  0
   -0.0670    1.5260    0.0600 C   0  0  0  0  0  1  0  0  0  0  0  0
   -0.4010   -0.5700    1.0800 O   0  0  0  0  0  0  0  0  0  0  0  0
    0.3620   -0.0970   -1.9400 H   0  0  0  0  0  0  0  0  0  0  0  0
    1.2960   -4.4870   -3.9830 C   0  0  1  0  0  3  0  0  0  0  0  0
    2.8270   -4.4310   -3.9010 C   0  0  0  0  0  1  0  0  0  0  0  0
    0.8460   -5.9040   -4.2640 C   0  0  0  0  0  3  0  0  0  0  0  0
    1.2510   -6.5160   -5.3930 O   0  0  0  0  0  0  0  0  0  0  0  0
    0.9770   -7.3940   -5.5740 H   0  0  0  0  0  0  0  0  0  0  0  0
    0.0160   -6.5530   -3.4240 O   0  0  0  0  0  0  0  0  0  0  0  0
   -0.2730   -6.1370   -2.6360 H   0  0  0  0  0  0  0  0  0  0  0  0
  1  5  1  0  0  0  0
  2  1  2  0  0  0  0
  3  1  1  0  0  0  0
  3  4  1  0  0  0  0
  5  7  1  0  0  0  0
  5  6  1  6  0  0  0
  7  8  1  0  0  0  0
  8  9  1  0  0  0  0
  8 10  2  0  0  0  0
 11  7  1  0  0  0  0
 12 13  1  1  0  0  0
 12  3  1  0  0  0  0
 14 12  1  0  0  0  0
 14 17  1  0  0  0  0
 15 14  1  0  0  0  0
 16 15  1  0  0  0  0
 17 18  1  0  0  0  0
M  END
>  <REMARK>
  6 active torsions:
  status: ('A' for Active; 'I' for Inactive)
       I    between atoms: C_2  and  N_4 
    1  A    between atoms: N_4  and  C_5 
    2  A    between atoms: C_5  and  C_7 
       I    between atoms: C_7  and  N_9 
    3  A    between atoms: N_9  and  C_10 
    4  A    between atoms: C_10  and  C_12 
    5  A    between atoms: C_12  and  O_13 
    6  A    between atoms: C_12  and  O_14 

>  <TORSDO>
F 6

$$$$
C:\Users\siddh\.mgltools\PyRx\Ligands\ZINC000002572074_uff_E=78.71.pdbqt
 OpenBabel04182118313D

 17 16  0  0  1  0  0  0  0  0999 V2000
    0.6600   -2.0790   -1.1360 C   0  0  2  0  0  3  0  0  0  0  0  0
    0.6180   -0.5670   -1.1020 C   0  0  0  0  0  0  0  0  0  0  0  0
    1.1210    0.0810   -2.0110 O   0  0  0  0  0  0  0  0  0  0  0  0
    0.0260    0.0680   -0.0580 O   0  0  0  0  0  0  0  0  0  0  0  0
   -0.0340    1.4430    0.0330 C   0  0  0  0  0  1  0  0  0  0  0  0
    1.4060   -2.6270    0.0940 C   0  0  0  0  0  2  0  0  0  0  0  0
    1.3850   -4.1660    0.1190 C   0  0  0  0  0  2  0  0  0  0  0  0
    2.1140   -4.7330    1.3030 C   0  0  0  0  0  3  0  0  0  0  0  0
    2.7070   -3.9260    2.2060 O   0  0  0  0  0  0  0  0  0  0  0  0
    3.1580   -4.2950    2.9390 H   0  0  0  0  0  0  0  0  0  0  0  0
    2.1810   -6.0680    1.4630 O   0  0  0  0  0  0  0  0  0  0  0  0
    1.7720   -6.6360    0.8410 H   0  0  0  0  0  0  0  0  0  0  0  0
    1.3160   -2.5270   -2.3590 N   0  0  0  0  0  0  0  0  0  0  0  0
    0.6570   -2.5920   -3.5480 C   0  0  0  0  0  0  0  0  0  0  0  0
    1.3850   -3.0160   -4.7890 C   0  0  0  0  0  1  0  0  0  0  0  0
   -0.5300   -2.3140   -3.6190 O   0  0  0  0  0  0  0  0  0  0  0  0
    2.3130   -2.7850   -2.3230 H   0  0  0  0  0  0  0  0  0  0  0  0
  1  2  1  0  0  0  0
  1  6  1  1  0  0  0
  2  4  1  0  0  0  0
  3  2  2  0  0  0  0
  4  5  1  0  0  0  0
  6  7  1  0  0  0  0
  7  8  1  0  0  0  0
  8 11  1  0  0  0  0
  8  9  1  0  0  0  0
  9 10  1  0  0  0  0
 12 11  1  0  0  0  0
 13 17  1  0  0  0  0
 13  1  1  0  0  0  0
 14 13  1  0  0  0  0
 15 14  1  0  0  0  0
 16 14  2  0  0  0  0
M  END
>  <REMARK>
  8 active torsions:
  status: ('A' for Active; 'I' for Inactive)
    1  A    between atoms: O_2  and  C_3 
    2  A    between atoms: C_3  and  C_5 
    3  A    between atoms: C_5  and  C_6 
    4  A    between atoms: C_5  and  N_11 
    5  A    between atoms: C_6  and  C_7 
    6  A    between atoms: C_7  and  C_8 
    7  A    between atoms: C_8  and  O_9 
    8  A    between atoms: C_8  and  O_10 
       I    between atoms: N_11  and  C_12 

>  <TORSDO>
F 8

$$$$
C:\Users\siddh\.mgltools\PyRx\Ligands\ZINC000002569185_uff_E=336.47.pdbqt
 OpenBabel04182118313D

 16 16  0  0  0  0  0  0  0  0999 V2000
    0.2550    1.4780    0.3240 C   0  0  0  0  0  1  0  0  0  0  0  0
    0.0350   -0.0270    0.0490 C   0  0  0  0  0  0  0  0  0  0  0  0
    0.7540   -0.8360    1.1520 C   0  0  0  0  0  1  0  0  0  0  0  0
   -1.4390   -0.3430   -0.0490 N   0  0  0  0  0  0  0  0  0  0  0  0
   -1.7380   -1.7630   -0.3480 C   0  0  0  0  0  2  0  0  0  0  0  0
   -3.2480   -1.9720   -0.5090 C   0  0  0  0  0  2  0  0  0  0  0  0
   -3.9290   -1.5950    0.6690 O   0  0  0  0  0  0  0  0  0  0  0  0
   -3.7270   -0.2170    0.8940 C   0  0  0  0  0  2  0  0  0  0  0  0
   -2.2400    0.0820    1.1270 C   0  0  0  0  0  2  0  0  0  0  0  0
    0.8930   -0.3630   -1.5720 S   0  0  0  0  0  0  0  0  0  0  0  0
    1.0220   -2.0620   -1.8470 O   0  0  0  0  0  0  0  0  0  0  0  0
    0.1350   -2.4520   -1.8870 H   0  0  0  0  0  0  0  0  0  0  0  0
   -0.0120    0.3870   -2.8340 O   0  0  0  0  0  0  0  0  0  0  0  0
   -0.9020    0.0030   -2.8670 H   0  0  0  0  0  0  0  0  0  0  0  0
    2.4810    0.3120   -1.5030 O   0  0  0  0  0  0  0  0  0  0  0  0
    2.9830   -0.1140   -0.7910 H   0  0  0  0  0  0  0  0  0  0  0  0
  2  1  1  0  0  0  0
  2  3  1  0  0  0  0
  4  2  1  0  0  0  0
  4  9  1  0  0  0  0
  5  4  1  0  0  0  0
  6  5  1  0  0  0  0
  6  7  1  0  0  0  0
  7  8  1  0  0  0  0
  8  9  1  0  0  0  0
 10 15  1  0  0  0  0
 10  2  1  0  0  0  0
 11 10  1  0  0  0  0
 12 11  1  0  0  0  0
 13 10  1  0  0  0  0
 14 13  1  0  0  0  0
 15 16  1  0  0  0  0
M  END
>  <REMARK>
  5 active torsions:
  status: ('A' for Active; 'I' for Inactive)
    1  A    between atoms: C_2  and  N_4 
    2  A    between atoms: C_2  and  S_10 
    3  A    between atoms: S_10  and  O_11 
    4  A    between atoms: S_10  and  O_12 
    5  A    between atoms: S_10  and  O_13 

>  <TORSDO>
F 5

$$$$
C:\Users\siddh\.mgltools\PyRx\Ligands\ZINC000002567697_uff_E=503.72.pdbqt
 OpenBabel04182118313D

 20 20  0  0  1  0  0  0  0  0999 V2000
   -2.6120    1.1310   -0.0460 N   0  0  0  0  0  0  0  0  0  0  0  0
   -2.5610    0.2550    0.5240 H   0  0  0  0  0  0  0  0  0  0  0  0
   -1.4180    1.9770    0.1110 C   0  0  2  0  0  3  0  0  0  0  0  0
   -0.1220    1.2000   -0.0130 C   0  0  0  0  0  3  0  0  0  0  0  0
   -0.1240   -0.1380   -0.1730 O   0  0  0  0  0  0  0  0  0  0  0  0
   -0.1290   -1.0260   -0.4690 H   0  0  0  0  0  0  0  0  0  0  0  0
    1.0550    1.8530    0.0590 O   0  0  0  0  0  0  0  0  0  0  0  0
    1.0690    2.7830    0.1700 H   0  0  0  0  0  0  0  0  0  0  0  0
   -1.4830    2.6660    1.4760 C   0  0  0  0  0  2  0  0  0  0  0  0
   -1.4400    1.7070    2.4990 O   0  0  0  0  0  0  0  0  0  0  0  0
   -1.5590    2.2030    3.3490 H   0  0  0  0  0  0  0  0  0  0  0  0
   -2.9610    0.7720   -1.7470 S   0  0  0  0  0  0  0  0  0  0  0  0
   -4.2250   -0.1010   -1.7110 O   0  0  0  0  0  0  0  0  0  0  0  0
   -3.5180    2.0800   -2.3310 O   0  0  0  0  0  0  0  0  0  0  0  0
   -1.6640    0.0550   -2.7490 C   0  0  0  0  0  0  0  0  0  0  0  0
   -1.5310   -1.3360   -2.8320 C   0  0  0  0  0  3  0  0  0  0  0  0
   -0.5030   -1.8950   -3.5960 C   0  0  0  0  0  3  0  0  0  0  0  0
    0.3930   -1.0640   -4.2770 C   0  0  0  0  0  3  0  0  0  0  0  0
    0.2610    0.3250   -4.1950 C   0  0  0  0  0  3  0  0  0  0  0  0
   -0.7670    0.8860   -3.4310 C   0  0  0  0  0  3  0  0  0  0  0  0
  1  3  1  0  0  0  0
  1  2  1  0  0  0  0
  3  9  1  1  0  0  0
  4  7  1  0  0  0  0
  4  3  1  0  0  0  0
  5  4  1  0  0  0  0
  6  5  1  0  0  0  0
  7  8  1  0  0  0  0
  9 10  1  0  0  0  0
 10 11  1  0  0  0  0
 12 13  2  0  0  0  0
 12  1  1  0  0  0  0
 14 12  2  0  0  0  0
 15 12  1  0  0  0  0
 16 15  1  0  0  0  0
 17 16  2  0  0  0  0
 18 19  2  0  0  0  0
 18 17  1  0  0  0  0
 19 20  1  0  0  0  0
 20 15  2  0  0  0  0
M  END
>  <REMARK>
  8 active torsions:
  status: ('A' for Active; 'I' for Inactive)
    1  A    between atoms: O_1  and  C_2 
    2  A    between atoms: C_2  and  O_3 
    3  A    between atoms: C_2  and  C_4 
    4  A    between atoms: C_4  and  C_5 
    5  A    between atoms: C_4  and  N_7 
    6  A    between atoms: C_5  and  O_6 
    7  A    between atoms: N_7  and  S_8 
    8  A    between atoms: S_8  and  C_11 

>  <TORSDO>
F 8

$$$$
C:\Users\siddh\.mgltools\PyRx\Ligands\ZINC000002565545_uff_E=201.81.pdbqt
 OpenBabel04182118313D

 19 19  0  0  1  0  0  0  0  0999 V2000
    1.7610   -2.0910   -2.9790 C   0  0  1  0  0  3  0  0  0  0  0  0
    1.0690   -1.8020   -1.6160 C   0  0  0  0  0  2  0  0  0  0  0  0
    1.8450   -2.3420   -0.4080 C   0  0  0  0  0  2  0  0  0  0  0  0
    0.9620   -1.8670    1.1190 S   0  0  0  0  0  0  0  0  0  0  0  0
    2.2500   -2.4780    2.2490 C   0  0  0  0  0  1  0  0  0  0  0  0
    1.8900   -3.5920   -3.1320 C   0  0  0  0  0  3  0  0  0  0  0  0
    0.7880   -4.3600   -3.2380 O   0  0  0  0  0  0  0  0  0  0  0  0
    0.8710   -5.2880   -3.3320 H   0  0  0  0  0  0  0  0  0  0  0  0
    3.1080   -4.1650   -3.1710 O   0  0  0  0  0  0  0  0  0  0  0  0
    3.8780   -3.6350   -3.0980 H   0  0  0  0  0  0  0  0  0  0  0  0
    1.0050   -1.5200   -4.1390 N   0  0  0  0  0  0  0  0  0  0  0  0
    1.6660   -1.8180   -5.4330 C   0  0  0  0  0  2  0  0  0  0  0  0
    0.8450   -1.3720   -6.5360 N   0  0  0  0  0  0  0  0  0  0  0  0
    0.0630   -0.2000   -6.3940 C   0  0  0  0  0  0  0  0  0  0  0  0
    1.0230   -1.7550   -7.4780 H   0  0  0  0  0  0  0  0  0  0  0  0
    0.0670    0.4880   -5.1550 N   0  0  0  0  0  0  0  0  0  0  0  0
   -0.6290    0.3550   -7.5290 S   0  0  0  0  0  0  0  0  0  0  0  0
    0.7440   -0.0640   -3.9990 C   0  0  0  0  0  2  0  0  0  0  0  0
   -0.3450    1.4310   -5.0840 H   0  0  0  0  0  0  0  0  0  0  0  0
  1  2  1  1  0  0  0
  2  3  1  0  0  0  0
  3  4  1  0  0  0  0
  4  5  1  0  0  0  0
  6  1  1  0  0  0  0
  7  6  1  0  0  0  0
  8  7  1  0  0  0  0
  9  6  1  0  0  0  0
  9 10  1  0  0  0  0
 11 18  1  0  0  0  0
 11  1  1  0  0  0  0
 12 11  1  0  0  0  0
 13 14  1  0  0  0  0
 13 12  1  0  0  0  0
 14 16  1  0  0  0  0
 15 13  1  0  0  0  0
 16 19  1  0  0  0  0
 16 18  1  0  0  0  0
 17 14  2  0  0  0  0
M  END
>  <REMARK>
  7 active torsions:
  status: ('A' for Active; 'I' for Inactive)
    1  A    between atoms: S_2  and  C_3 
    2  A    between atoms: C_3  and  C_4 
    3  A    between atoms: C_4  and  C_5 
    4  A    between atoms: C_5  and  C_6 
    5  A    between atoms: C_5  and  N_9 
    6  A    between atoms: C_6  and  O_7 
    7  A    between atoms: C_6  and  O_8 

>  <TORSDO>
F 7

$$$$
C:\Users\siddh\.mgltools\PyRx\Ligands\ZINC000002560345_uff_E=63.50.pdbqt
 OpenBabel04182118313D

 20 19  0  0  1  0  0  0  0  0999 V2000
   -3.9380   -6.2910    0.0110 C   0  0  2  0  0  3  0  0  0  0  0  0
   -3.9870   -4.7500   -0.0090 C   0  0  0  0  0  2  0  0  0  0  0  0
   -2.5650   -4.1640   -0.0010 C   0  0  0  0  0  2  0  0  0  0  0  0
   -2.5770   -2.6370    0.0130 C   0  0  0  0  0  2  0  0  0  0  0  0
   -1.1420   -2.1010    0.0060 C   0  0  0  0  0  2  0  0  0  0  0  0
   -1.1300   -0.6510    0.0140 N   0  0  0  0  0  0  0  0  0  0  0  0
    0.0380    0.0450    0.0050 C   0  0  0  0  0  0  0  0  0  0  0  0
    0.0100    1.5430    0.0120 C   0  0  0  0  0  1  0  0  0  0  0  0
    1.1120   -0.5390   -0.0090 O   0  0  0  0  0  0  0  0  0  0  0  0
   -2.0220   -0.1340    0.0250 H   0  0  0  0  0  0  0  0  0  0  0  0
   -3.2880   -6.8000   -1.1920 N   0  0  0  0  0  0  0  0  0  0  0  0
   -2.9470   -8.1070   -1.3460 C   0  0  0  0  0  0  0  0  0  0  0  0
   -2.2520   -8.5450   -2.6010 C   0  0  0  0  0  1  0  0  0  0  0  0
   -3.1850   -8.9230   -0.4670 O   0  0  0  0  0  0  0  0  0  0  0  0
   -3.0530   -6.1460   -1.9540 H   0  0  0  0  0  0  0  0  0  0  0  0
   -5.3310   -6.8500    0.1300 C   0  0  0  0  0  3  0  0  0  0  0  0
   -6.2270   -6.6540   -0.8570 O   0  0  0  0  0  0  0  0  0  0  0  0
   -7.0930   -7.0040   -0.7790 H   0  0  0  0  0  0  0  0  0  0  0  0
   -5.6880   -7.5420    1.2280 O   0  0  0  0  0  0  0  0  0  0  0  0
   -5.0690   -7.6800    1.9170 H   0  0  0  0  0  0  0  0  0  0  0  0
  1  2  1  6  0  0  0
  1 16  1  0  0  0  0
  2  3  1  0  0  0  0
  3  4  1  0  0  0  0
  5  4  1  0  0  0  0
  5  6  1  0  0  0  0
  6 10  1  0  0  0  0
  7  8  1  0  0  0  0
  7  6  1  0  0  0  0
  9  7  2  0  0  0  0
 11  1  1  0  0  0  0
 12 11  1  0  0  0  0
 12 14  2  0  0  0  0
 13 12  1  0  0  0  0
 15 11  1  0  0  0  0
 16 19  1  0  0  0  0
 17 18  1  0  0  0  0
 17 16  1  0  0  0  0
 19 20  1  0  0  0  0
M  END
>  <REMARK>
  9 active torsions:
  status: ('A' for Active; 'I' for Inactive)
       I    between atoms: C_2  and  N_4 
    1  A    between atoms: N_4  and  C_5 
    2  A    between atoms: C_5  and  C_6 
    3  A    between atoms: C_6  and  C_7 
    4  A    between atoms: C_7  and  C_8 
    5  A    between atoms: C_8  and  C_9 
    6  A    between atoms: C_9  and  N_10 
    7  A    between atoms: C_9  and  C_14 
       I    between atoms: N_10  and  C_11 
    8  A    between atoms: C_14  and  O_15 
    9  A    between atoms: C_14  and  O_16 

>  <TORSDO>
F 9

$$$$
C:\Users\siddh\.mgltools\PyRx\Ligands\ZINC000002554723_uff_E=689.48.pdbqt
 OpenBabel04182118313D

 17 17  0  0  0  0  0  0  0  0999 V2000
   -0.0870   -0.2450   -0.0490 O   0  0  0  0  0  0  0  0  0  0  0  0
    0.0440    1.0950   -0.0300 C   0  0  0  0  0  3  0  0  0  0  0  0
   -0.3320   -1.1490   -0.0840 H   0  0  0  0  0  0  0  0  0  0  0  0
    1.2750    1.6390   -0.0020 O   0  0  0  0  0  0  0  0  0  0  0  0
    1.3760    2.5710    0.0120 H   0  0  0  0  0  0  0  0  0  0  0  0
   -1.1580    1.9970   -0.0390 C   0  0  0  0  0  2  0  0  0  0  0  0
   -2.7550    1.1100   -0.0580 S   0  0  0  0  0  0  0  0  0  0  0  0
   -2.8210    0.1980   -1.2930 O   0  0  0  0  0  0  0  0  0  0  0  0
   -2.6960    0.0430    1.0470 O   0  0  0  0  0  0  0  0  0  0  0  0
   -4.3410    1.9800    0.1580 C   0  0  0  0  0  2  0  0  0  0  0  0
   -5.4740    1.0620    0.0880 N   0  0  0  0  0  0  0  0  0  0  0  0
   -6.2200    0.7390    1.1340 N   0  0  0  0  0  0  0  0  0  0  0  0
   -7.1850   -0.1030    0.7140 C   0  0  0  0  0  2  0  0  0  0  0  0
   -6.0880    1.0690    2.0900 H   0  0  0  0  0  0  0  0  0  0  0  0
   -7.0430   -0.2980   -0.6440 C   0  0  0  0  0  0  0  0  0  0  0  0
   -5.9480    0.4490   -1.0140 C   0  0  0  0  0  3  0  0  0  0  0  0
   -8.0610   -1.2770   -1.6800 Cl  0  0  0  0  0  0  0  0  0  0  0  0
  1  2  1  0  0  0  0
  2  4  1  0  0  0  0
  3  1  1  0  0  0  0
  4  5  1  0  0  0  0
  6  2  1  0  0  0  0
  7  6  1  0  0  0  0
  7 10  1  0  0  0  0
  7  9  2  0  0  0  0
  8  7  2  0  0  0  0
 11 10  1  0  0  0  0
 11 12  1  0  0  0  0
 12 14  1  0  0  0  0
 13 12  1  0  0  0  0
 15 13  1  0  0  0  0
 16 15  2  0  0  0  0
 16 11  1  0  0  0  0
 17 15  1  0  0  0  0
M  END
>  <REMARK>
  5 active torsions:
  status: ('A' for Active; 'I' for Inactive)
    1  A    between atoms: C_2  and  O_3 
    2  A    between atoms: C_2  and  C_4 
    3  A    between atoms: C_4  and  S_5 
    4  A    between atoms: S_5  and  C_8 
    5  A    between atoms: C_8  and  N_9 

>  <TORSDO>
F 5

$$$$
C:\Users\siddh\.mgltools\PyRx\Ligands\ZINC000002551345_uff_E=279.02.pdbqt
 OpenBabel04182118313D

 17 17  0  0  1  0  0  0  0  0999 V2000
    0.6980   -2.0810    1.1190 C   0  0  2  0  0  3  0  0  0  0  0  0
    0.1670   -2.9060    0.1890 N   0  0  0  0  0  0  0  0  0  0  0  0
   -0.3310   -2.6180   -0.6530 H   0  0  0  0  0  0  0  0  0  0  0  0
    0.4070   -4.1600    0.5640 N   0  0  0  0  0  0  0  0  0  0  0  0
    1.0890   -4.1530    1.7290 C   0  0  0  0  0  0  0  0  0  0  0  0
    1.2850   -2.8460    2.1000 C   0  0  0  0  0  0  0  0  0  0  0  0
    0.1040   -5.0010    0.0240 H   0  0  0  0  0  0  0  0  0  0  0  0
    0.6510   -0.6070    1.0830 C   0  0  0  0  0  0  0  0  0  0  0  0
    1.1730    0.0310    1.9880 O   0  0  0  0  0  0  0  0  0  0  0  0
    0.0370    0.0380    0.0590 O   0  0  0  0  0  0  0  0  0  0  0  0
   -0.0270    1.4170   -0.0080 C   0  0  0  0  0  1  0  0  0  0  0  0
    1.9210   -2.4030    3.1990 O   0  0  0  0  0  0  0  0  0  0  0  0
    1.9980   -1.4830    3.3570 H   0  0  0  0  0  0  0  0  0  0  0  0
    1.5450   -5.3430    2.4770 C   0  0  0  0  0  0  0  0  0  0  0  0
    2.1550   -5.1910    3.5270 O   0  0  0  0  0  0  0  0  0  0  0  0
    1.2920   -6.5930    2.0100 O   0  0  0  0  0  0  0  0  0  0  0  0
    1.7050   -7.7260    2.6850 C   0  0  0  0  0  1  0  0  0  0  0  0
  1  8  1  1  0  0  0
  1  6  1  0  0  0  0
  2  4  1  0  0  0  0
  2  1  1  0  0  0  0
  3  2  1  0  0  0  0
  4  5  1  0  0  0  0
  5  6  2  0  0  0  0
  5 14  1  0  0  0  0
  6 12  1  0  0  0  0
  7  4  1  0  0  0  0
  8  9  2  0  0  0  0
 10  8  1  0  0  0  0
 11 10  1  0  0  0  0
 12 13  1  0  0  0  0
 14 15  2  0  0  0  0
 16 14  1  0  0  0  0
 16 17  1  0  0  0  0
M  END
>  <REMARK>
  5 active torsions:
  status: ('A' for Active; 'I' for Inactive)
    1  A    between atoms: O_2  and  C_3 
    2  A    between atoms: C_3  and  C_5 
    3  A    between atoms: C_9  and  C_10 
    4  A    between atoms: C_10  and  O_12 
    5  A    between atoms: C_14  and  O_15 

>  <TORSDO>
F 5

$$$$
C:\Users\siddh\.mgltools\PyRx\Ligands\ZINC000002545176_uff_E=188.54.pdbqt
 OpenBabel04182118313D

 22 22  0  0  1  0  0  0  0  0999 V2000
    0.0180   -0.1750   -0.0190 O   0  0  0  0  0  0  0  0  0  0  0  0
    0.0350    1.1690    0.0710 C   0  0  0  0  0  3  0  0  0  0  0  0
   -0.0150   -1.0960   -0.1880 H   0  0  0  0  0  0  0  0  0  0  0  0
    1.2110    1.8090    0.2180 O   0  0  0  0  0  0  0  0  0  0  0  0
    1.2310    2.7440    0.2810 H   0  0  0  0  0  0  0  0  0  0  0  0
   -1.2590    1.9450    0.0030 C   0  0  1  0  0  3  0  0  0  0  0  0
   -1.0420    3.3240    0.1960 O   0  0  0  0  0  0  0  0  0  0  0  0
   -0.4300    3.6520   -0.5110 H   0  0  0  0  0  0  0  0  0  0  0  0
   -2.0180    1.6620   -1.3210 C   0  0  2  0  0  3  0  0  0  0  0  0
   -1.1790    1.8690   -2.4370 O   0  0  0  0  0  0  0  0  0  0  0  0
   -0.9600    2.8350   -2.4950 H   0  0  0  0  0  0  0  0  0  0  0  0
   -3.2920    2.4820   -1.4420 C   0  0  0  0  0  0  0  0  0  0  0  0
   -3.4040    3.2490   -2.3830 O   0  0  0  0  0  0  0  0  0  0  0  0
   -4.2620    2.4010   -0.4780 N   0  0  0  0  0  0  0  0  0  0  0  0
   -4.0810    1.7990    0.3380 H   0  0  0  0  0  0  0  0  0  0  0  0
   -5.4650    3.1870   -0.4630 C   0  0  0  0  0  0  0  0  0  0  0  0
   -6.0360    3.7450   -1.6310 C   0  0  0  0  0  3  0  0  0  0  0  0
   -7.1810    4.5390   -1.5490 C   0  0  0  0  0  3  0  0  0  0  0  0
   -7.7750    4.7900   -0.3130 C   0  0  0  0  0  0  0  0  0  0  0  0
   -7.2390    4.2250    0.8460 C   0  0  0  0  0  3  0  0  0  0  0  0
   -8.8760    5.5780   -0.2390 F   0  0  0  0  0  0  0  0  0  0  0  0
   -6.0980    3.4200    0.7720 C   0  0  0  0  0  3  0  0  0  0  0  0
  1  2  1  0  0  0  0
  2  4  1  0  0  0  0
  3  1  1  0  0  0  0
  4  5  1  0  0  0  0
  6  2  1  6  0  0  0
  6  7  1  0  0  0  0
  8  7  1  0  0  0  0
  9 10  1  6  0  0  0
  9  6  1  0  0  0  0
 11 10  1  0  0  0  0
 12  9  1  0  0  0  0
 12 14  1  0  0  0  0
 13 12  2  0  0  0  0
 14 16  1  0  0  0  0
 14 15  1  0  0  0  0
 16 22  1  0  0  0  0
 17 18  1  0  0  0  0
 17 16  2  0  0  0  0
 18 19  2  0  0  0  0
 19 21  1  0  0  0  0
 19 20  1  0  0  0  0
 22 20  2  0  0  0  0
M  END
>  <REMARK>
  7 active torsions:
  status: ('A' for Active; 'I' for Inactive)
    1  A    between atoms: C_2  and  O_3 
    2  A    between atoms: C_2  and  C_4 
    3  A    between atoms: C_4  and  O_5 
    4  A    between atoms: C_4  and  C_6 
    5  A    between atoms: C_6  and  O_7 
    6  A    between atoms: C_6  and  C_8 
       I    between atoms: C_8  and  N_10 
    7  A    between atoms: N_10  and  C_11 

>  <TORSDO>
F 7

$$$$
C:\Users\siddh\.mgltools\PyRx\Ligands\ZINC000002539628_uff_E=969.53.pdbqt
 OpenBabel04182118313D

 18 19  0  0  1  0  0  0  0  0999 V2000
    0.0310    1.4810   -0.0830 C   0  0  0  0  0  1  0  0  0  0  0  0
    0.0200   -0.0610    0.0340 C   0  0  0  0  0  0  0  0  0  0  0  0
   -1.4250   -0.5750   -0.0420 C   0  0  0  0  0  1  0  0  0  0  0  0
    0.9900   -0.7300   -1.3760 S   0  0  0  0  0  0  0  0  0  0  0  0
    2.5260   -0.5000   -0.4140 C   0  0  2  0  0  3  0  0  0  0  0  0
    3.4220   -1.8230   -0.2140 C   0  0  2  0  0  3  0  0  0  0  0  0
    2.8820   -1.6880    1.1600 C   0  0  0  0  0  0  0  0  0  0  0  0
    2.7080   -2.5440    2.0130 O   0  0  0  0  0  0  0  0  0  0  0  0
    2.1360   -0.6280    0.9550 N   0  0  0  0  0  0  0  0  0  0  0  0
    0.7370   -0.5720    1.3170 C   0  0  1  0  0  3  0  0  0  0  0  0
    0.4790    0.2550    2.5520 C   0  0  0  0  0  3  0  0  0  0  0  0
    1.4930    0.8740    3.1860 O   0  0  0  0  0  0  0  0  0  0  0  0
    1.3230    1.3860    3.9520 H   0  0  0  0  0  0  0  0  0  0  0  0
   -0.7720    0.3570    3.0420 O   0  0  0  0  0  0  0  0  0  0  0  0
   -1.4820   -0.0710    2.6070 H   0  0  0  0  0  0  0  0  0  0  0  0
    4.8540   -1.5730   -0.2770 N   0  0  0  0  0  0  0  0  0  0  0  0
    5.3430   -2.4350    0.0580 H   0  0  0  0  0  0  0  0  0  0  0  0
    5.1040   -1.4480   -1.2840 H   0  0  0  0  0  0  0  0  0  0  0  0
  1  2  1  0  0  0  0
  2 10  1  0  0  0  0
  3  2  1  0  0  0  0
  4  2  1  0  0  0  0
  5  4  1  6  0  0  0
  5  6  1  0  0  0  0
  5  9  1  0  0  0  0
  6 16  1  1  0  0  0
  6  7  1  0  0  0  0
  7  8  2  0  0  0  0
  9  7  1  0  0  0  0
  9 10  1  0  0  0  0
 10 11  1  1  0  0  0
 11 14  1  0  0  0  0
 11 12  1  0  0  0  0
 12 13  1  0  0  0  0
 15 14  1  0  0  0  0
 16 17  1  0  0  0  0
 18 16  1  0  0  0  0
M  END
>  <REMARK>
  4 active torsions:
  status: ('A' for Active; 'I' for Inactive)
    1  A    between atoms: C_6  and  N_7 
    2  A    between atoms: C_11  and  C_12 
    3  A    between atoms: C_12  and  O_13 
    4  A    between atoms: C_12  and  O_14 

>  <TORSDO>
F 4

$$$$
C:\Users\siddh\.mgltools\PyRx\Ligands\ZINC000002533914_uff_E=130.14.pdbqt
 OpenBabel04182118313D

 19 19  0  0  0  0  0  0  0  0999 V2000
    0.1070   -0.1480    0.0000 O   0  0  0  0  0  0  0  0  0  0  0  0
    0.0220    1.1960    0.0070 C   0  0  0  0  0  3  0  0  0  0  0  0
    0.2680   -1.0710   -0.0130 H   0  0  0  0  0  0  0  0  0  0  0  0
    1.1500    1.9300    0.0050 O   0  0  0  0  0  0  0  0  0  0  0  0
    1.1000    2.8660    0.0090 H   0  0  0  0  0  0  0  0  0  0  0  0
   -1.3090    1.8970    0.0180 C   0  0  0  0  0  2  0  0  0  0  0  0
   -2.4470    0.9890    0.0190 N   0  0  0  0  0  0  0  0  0  0  0  0
   -3.7150    1.4800    0.0270 C   0  0  0  0  0  0  0  0  0  0  0  0
   -3.8910    2.6900    0.0330 O   0  0  0  0  0  0  0  0  0  0  0  0
   -2.3030   -0.0320    0.0130 H   0  0  0  0  0  0  0  0  0  0  0  0
   -4.8820    0.5510    0.0290 C   0  0  0  0  0  3  0  0  0  0  0  0
   -6.1690    0.9700    0.0360 C   0  0  0  0  0  0  0  0  0  0  0  0
   -7.3220    0.0680    0.0400 C   0  0  0  0  0  0  0  0  0  0  0  0
   -6.7030    2.7010    0.0430 S   0  0  0  0  0  0  0  0  0  0  0  0
   -8.4990    0.7060    0.0480 N   0  0  0  0  0  0  0  0  0  0  0  0
   -7.2410   -1.1510    0.0360 O   0  0  0  0  0  0  0  0  0  0  0  0
   -8.3820    2.0470    0.0510 C   0  0  0  0  0  0  0  0  0  0  0  0
   -9.4090    0.2200    0.0530 H   0  0  0  0  0  0  0  0  0  0  0  0
   -9.3600    2.7770    0.0590 O   0  0  0  0  0  0  0  0  0  0  0  0
  1  2  1  0  0  0  0
  2  6  1  0  0  0  0
  3  1  1  0  0  0  0
  4  2  1  0  0  0  0
  4  5  1  0  0  0  0
  6  7  1  0  0  0  0
  7  8  1  0  0  0  0
  8 11  1  0  0  0  0
  8  9  2  0  0  0  0
 10  7  1  0  0  0  0
 11 12  2  0  0  0  0
 12 13  1  0  0  0  0
 12 14  1  0  0  0  0
 13 15  1  0  0  0  0
 14 17  1  0  0  0  0
 15 17  1  0  0  0  0
 15 18  1  0  0  0  0
 16 13  2  0  0  0  0
 17 19  2  0  0  0  0
M  END
>  <REMARK>
  4 active torsions:
  status: ('A' for Active; 'I' for Inactive)
    1  A    between atoms: C_2  and  O_3 
    2  A    between atoms: C_2  and  C_4 
    3  A    between atoms: C_4  and  N_5 
       I    between atoms: N_5  and  C_6 
    4  A    between atoms: C_6  and  C_8 

>  <TORSDO>
F 4

$$$$
C:\Users\siddh\.mgltools\PyRx\Ligands\ZINC000002528077_uff_E=193.33.pdbqt
 OpenBabel04182118313D

 22 22  0  0  1  0  0  0  0  0999 V2000
   -1.4680    2.6580   -1.3060 C   0  0  1  0  0  3  0  0  0  0  0  0
   -1.3260    1.8750    0.0230 C   0  0  2  0  0  3  0  0  0  0  0  0
    0.0090    1.1720    0.1020 C   0  0  0  0  0  3  0  0  0  0  0  0
    0.0710   -0.1670    0.2440 O   0  0  0  0  0  0  0  0  0  0  0  0
    0.1870   -1.0590    0.5070 H   0  0  0  0  0  0  0  0  0  0  0  0
    1.1490    1.8840    0.0240 O   0  0  0  0  0  0  0  0  0  0  0  0
    1.1150    2.8150   -0.0750 H   0  0  0  0  0  0  0  0  0  0  0  0
   -2.3900    0.9690    0.2050 O   0  0  0  0  0  0  0  0  0  0  0  0
   -2.3510    0.2840   -0.5110 H   0  0  0  0  0  0  0  0  0  0  0  0
   -1.2120    1.8250   -2.4160 O   0  0  0  0  0  0  0  0  0  0  0  0
   -1.9390    1.1560   -2.4920 H   0  0  0  0  0  0  0  0  0  0  0  0
   -2.8280    3.3220   -1.4210 C   0  0  0  0  0  0  0  0  0  0  0  0
   -3.5720    2.9880   -2.3300 O   0  0  0  0  0  0  0  0  0  0  0  0
   -3.1850    4.3230   -0.5570 N   0  0  0  0  0  0  0  0  0  0  0  0
   -2.4740    4.6700    0.1040 H   0  0  0  0  0  0  0  0  0  0  0  0
   -4.4540    4.9910   -0.5940 C   0  0  0  0  0  0  0  0  0  0  0  0
   -5.6300    4.3500   -1.0450 C   0  0  0  0  0  3  0  0  0  0  0  0
   -6.8420    5.0410   -1.0860 C   0  0  0  0  0  3  0  0  0  0  0  0
   -6.9030    6.3750   -0.6850 C   0  0  0  0  0  0  0  0  0  0  0  0
   -5.7530    7.0160   -0.2190 C   0  0  0  0  0  3  0  0  0  0  0  0
   -8.0790    7.0460   -0.7450 F   0  0  0  0  0  0  0  0  0  0  0  0
   -4.5370    6.3260   -0.1600 C   0  0  0  0  0  3  0  0  0  0  0  0
  1 10  1  6  0  0  0
  1  2  1  0  0  0  0
  2  3  1  6  0  0  0
  2  8  1  0  0  0  0
  3  4  1  0  0  0  0
  4  5  1  0  0  0  0
  6  3  1  0  0  0  0
  7  6  1  0  0  0  0
  9  8  1  0  0  0  0
 11 10  1  0  0  0  0
 12  1  1  0  0  0  0
 12 14  1  0  0  0  0
 13 12  2  0  0  0  0
 14 15  1  0  0  0  0
 16 14  1  0  0  0  0
 16 22  1  0  0  0  0
 17 16  2  0  0  0  0
 18 17  1  0  0  0  0
 18 19  2  0  0  0  0
 19 20  1  0  0  0  0
 20 22  2  0  0  0  0
 21 19  1  0  0  0  0
M  END
>  <REMARK>
  8 active torsions:
  status: ('A' for Active; 'I' for Inactive)
    1  A    between atoms: O_1  and  C_2 
    2  A    between atoms: C_2  and  O_3 
    3  A    between atoms: C_2  and  C_4 
    4  A    between atoms: C_4  and  O_5 
    5  A    between atoms: C_4  and  C_6 
    6  A    between atoms: C_6  and  O_7 
    7  A    between atoms: C_6  and  C_8 
       I    between atoms: C_8  and  N_10 
    8  A    between atoms: N_10  and  C_11 

>  <TORSDO>
F 8

$$$$
C:\Users\siddh\.mgltools\PyRx\Ligands\ZINC000002527899_uff_E=151.02.pdbqt
 OpenBabel04182118313D

 20 20  0  0  0  0  0  0  0  0999 V2000
   -4.8920    0.4320    0.1280 C   0  0  0  0  0  0  0  0  0  0  0  0
   -4.6710   -0.9720    0.1480 C   0  0  0  0  0  3  0  0  0  0  0  0
   -5.7400   -1.8800    0.1310 C   0  0  0  0  0  0  0  0  0  0  0  0
   -7.0460   -1.4150    0.0750 C   0  0  0  0  0  3  0  0  0  0  0  0
   -7.3010   -0.0510    0.0690 C   0  0  0  0  0  3  0  0  0  0  0  0
   -6.2600    0.8840    0.1130 C   0  0  0  0  0  0  0  0  0  0  0  0
   -3.7090    1.3950    0.1030 C   0  0  0  0  0  0  0  0  0  0  0  0
   -2.4090    0.9630    0.0870 N   0  0  0  0  0  0  0  0  0  0  0  0
   -2.1860   -0.0350    0.1000 H   0  0  0  0  0  0  0  0  0  0  0  0
   -3.9140    2.5960    0.0660 O   0  0  0  0  0  0  0  0  0  0  0  0
   -1.3100    1.9210    0.0410 C   0  0  0  0  0  2  0  0  0  0  0  0
    0.0510    1.2740    0.0130 C   0  0  0  0  0  3  0  0  0  0  0  0
    0.1950   -0.0660    0.0210 O   0  0  0  0  0  0  0  0  0  0  0  0
    0.4630   -0.9630    0.0340 H   0  0  0  0  0  0  0  0  0  0  0  0
    1.1480    2.0540   -0.0220 O   0  0  0  0  0  0  0  0  0  0  0  0
    1.0600    2.9870   -0.0280 H   0  0  0  0  0  0  0  0  0  0  0  0
   -6.6300    2.1860    0.1510 O   0  0  0  0  0  0  0  0  0  0  0  0
   -6.0670    2.9390    0.3400 H   0  0  0  0  0  0  0  0  0  0  0  0
   -5.5140   -3.2100    0.1700 O   0  0  0  0  0  0  0  0  0  0  0  0
   -4.6210   -3.5750    0.2470 H   0  0  0  0  0  0  0  0  0  0  0  0
  1  2  1  0  0  0  0
  3  2  2  0  0  0  0
  3 19  1  0  0  0  0
  4  3  1  0  0  0  0
  5  4  2  0  0  0  0
  5  6  1  0  0  0  0
  6  1  2  0  0  0  0
  6 17  1  0  0  0  0
  7  1  1  0  0  0  0
  8  9  1  0  0  0  0
  8  7  1  0  0  0  0
 10  7  2  0  0  0  0
 11  8  1  0  0  0  0
 12 13  1  0  0  0  0
 12 11  1  0  0  0  0
 13 14  1  0  0  0  0
 15 12  1  0  0  0  0
 16 15  1  0  0  0  0
 17 18  1  0  0  0  0
 19 20  1  0  0  0  0
M  END
>  <REMARK>
  7 active torsions:
  status: ('A' for Active; 'I' for Inactive)
    1  A    between atoms: O_1  and  C_2 
    2  A    between atoms: C_2  and  O_3 
    3  A    between atoms: C_2  and  C_4 
    4  A    between atoms: C_4  and  N_5 
       I    between atoms: N_5  and  C_6 
    5  A    between atoms: C_6  and  C_8 
    6  A    between atoms: C_10  and  O_11 
    7  A    between atoms: C_14  and  O_15 

>  <TORSDO>
F 7

$$$$
C:\Users\siddh\.mgltools\PyRx\Ligands\ZINC000002525175_uff_E=188.79.pdbqt
 OpenBabel04182118313D

 21 21  0  0  1  0  0  0  0  0999 V2000
    0.1090   -0.1490   -0.1260 O   0  0  0  0  0  0  0  0  0  0  0  0
    0.0480    1.1950   -0.0550 C   0  0  0  0  0  3  0  0  0  0  0  0
    0.2220   -1.0690   -0.2620 H   0  0  0  0  0  0  0  0  0  0  0  0
    1.1890    1.9110   -0.0600 O   0  0  0  0  0  0  0  0  0  0  0  0
    1.1550    2.8470   -0.0100 H   0  0  0  0  0  0  0  0  0  0  0  0
   -1.2840    1.9000    0.0340 C   0  0  1  0  0  3  0  0  0  0  0  0
   -2.3540    0.9880   -0.0510 O   0  0  0  0  0  0  0  0  0  0  0  0
   -2.2850    0.3450    0.6990 H   0  0  0  0  0  0  0  0  0  0  0  0
   -1.3750    2.7770    1.3120 C   0  0  2  0  0  3  0  0  0  0  0  0
   -1.0570    2.0250    2.4630 O   0  0  0  0  0  0  0  0  0  0  0  0
   -1.7620    1.3400    2.6010 H   0  0  0  0  0  0  0  0  0  0  0  0
   -2.7320    3.4420    1.4570 C   0  0  0  0  0  0  0  0  0  0  0  0
   -3.3990    3.1980    2.4500 O   0  0  0  0  0  0  0  0  0  0  0  0
   -3.2200    4.2490    0.4640 N   0  0  0  0  0  0  0  0  0  0  0  0
   -2.6540    4.3570   -0.3910 H   0  0  0  0  0  0  0  0  0  0  0  0
   -4.5190    4.8610    0.4740 C   0  0  0  0  0  0  0  0  0  0  0  0
   -5.2300    5.1380    1.6670 C   0  0  0  0  0  3  0  0  0  0  0  0
   -6.5090    5.6920    1.6150 C   0  0  0  0  0  3  0  0  0  0  0  0
   -7.1010    5.9800    0.3860 C   0  0  0  0  0  3  0  0  0  0  0  0
   -6.4040    5.7360   -0.7980 C   0  0  0  0  0  3  0  0  0  0  0  0
   -5.1170    5.1900   -0.7560 C   0  0  0  0  0  3  0  0  0  0  0  0
  1  2  1  0  0  0  0
  3  1  1  0  0  0  0
  4  2  1  0  0  0  0
  4  5  1  0  0  0  0
  6  2  1  1  0  0  0
  6  9  1  0  0  0  0
  7  6  1  0  0  0  0
  7  8  1  0  0  0  0
  9 12  1  1  0  0  0
  9 10  1  0  0  0  0
 10 11  1  0  0  0  0
 12 13  2  0  0  0  0
 14 16  1  0  0  0  0
 14 12  1  0  0  0  0
 15 14  1  0  0  0  0
 16 17  1  0  0  0  0
 18 17  2  0  0  0  0
 19 18  1  0  0  0  0
 20 21  1  0  0  0  0
 20 19  2  0  0  0  0
 21 16  2  0  0  0  0
M  END
>  <REMARK>
  7 active torsions:
  status: ('A' for Active; 'I' for Inactive)
    1  A    between atoms: C_2  and  O_3 
    2  A    between atoms: C_2  and  C_4 
    3  A    between atoms: C_4  and  O_5 
    4  A    between atoms: C_4  and  C_6 
    5  A    between atoms: C_6  and  O_7 
    6  A    between atoms: C_6  and  C_8 
       I    between atoms: C_8  and  N_10 
    7  A    between atoms: N_10  and  C_11 

>  <TORSDO>
F 7

$$$$
C:\Users\siddh\.mgltools\PyRx\Ligands\ZINC000002510545_uff_E=558.71.pdbqt
 OpenBabel04182118313D

 15 15  0  0  0  0  0  0  0  0999 V2000
   -3.8270    1.5530    0.0150 N   0  0  0  0  0  0  0  0  0  0  0  0
   -3.8840    2.7560    0.8930 C   0  0  0  0  0  2  0  0  0  0  0  0
   -5.0920    3.6470    0.5880 C   0  0  0  0  0  2  0  0  0  0  0  0
   -6.5530    2.6140    0.7080 S   0  0  0  0  0  0  0  0  0  0  0  0
   -6.9060    2.3770    2.1850 O   0  0  0  0  0  0  0  0  0  0  0  0
   -7.8050    3.3290    0.1770 O   0  0  0  0  0  0  0  0  0  0  0  0
   -6.2830    1.0430   -0.1120 C   0  0  0  0  0  2  0  0  0  0  0  0
   -4.8940    0.5530    0.3060 C   0  0  0  0  0  2  0  0  0  0  0  0
   -2.4820    0.9230    0.0440 C   0  0  0  0  0  2  0  0  0  0  0  0
   -2.0520    0.4150    1.4430 C   0  0  0  0  0  2  0  0  0  0  0  0
   -0.7080   -0.2600    1.4280 C   0  0  0  0  0  3  0  0  0  0  0  0
   -0.0040   -0.3910    0.2900 O   0  0  0  0  0  0  0  0  0  0  0  0
    0.2840    0.3700   -0.1750 H   0  0  0  0  0  0  0  0  0  0  0  0
   -0.2050   -0.7500    2.5810 O   0  0  0  0  0  0  0  0  0  0  0  0
   -0.6900   -0.6630    3.3780 H   0  0  0  0  0  0  0  0  0  0  0  0
  1  9  1  0  0  0  0
  1  8  1  0  0  0  0
  1  2  1  0  0  0  0
  3  4  1  0  0  0  0
  3  2  1  0  0  0  0
  4  5  2  0  0  0  0
  6  4  2  0  0  0  0
  7  8  1  0  0  0  0
  7  4  1  0  0  0  0
  9 10  1  0  0  0  0
 11 10  1  0  0  0  0
 11 14  1  0  0  0  0
 12 11  1  0  0  0  0
 13 12  1  0  0  0  0
 14 15  1  0  0  0  0
M  END
>  <REMARK>
  5 active torsions:
  status: ('A' for Active; 'I' for Inactive)
    1  A    between atoms: O_1  and  C_2 
    2  A    between atoms: C_2  and  O_3 
    3  A    between atoms: C_2  and  C_4 
    4  A    between atoms: C_4  and  C_5 
    5  A    between atoms: C_5  and  N_6 

>  <TORSDO>
F 5

$$$$
C:\Users\siddh\.mgltools\PyRx\Ligands\ZINC000002507083_uff_E=899.53.pdbqt
 OpenBabel04182118313D

 22 23  0  0  1  0  0  0  0  0999 V2000
    1.9970   -0.1190   -1.0380 N   0  0  0  0  0  0  0  0  0  0  0  0
    2.4540    1.1600   -1.1650 C   0  0  0  0  0  0  0  0  0  0  0  0
    1.7600    2.1110   -1.4940 O   0  0  0  0  0  0  0  0  0  0  0  0
    3.7600    1.2720   -0.8010 N   0  0  0  0  0  0  0  0  0  0  0  0
    4.0060    0.0730   -0.0480 C   0  0  2  0  0  3  0  0  0  0  0  0
    5.1820   -0.7140    0.1780 N   0  0  0  0  0  0  0  0  0  0  0  0
    4.7070   -1.9760    0.3370 C   0  0  0  0  0  0  0  0  0  0  0  0
    5.3540   -2.8920    0.8210 O   0  0  0  0  0  0  0  0  0  0  0  0
    3.4270   -2.1010   -0.0860 N   0  0  0  0  0  0  0  0  0  0  0  0
    3.1800   -0.9170   -0.8580 C   0  0  1  0  0  3  0  0  0  0  0  0
    4.2520    2.1710   -0.6950 H   0  0  0  0  0  0  0  0  0  0  0  0
    6.0860   -0.3870    0.5450 H   0  0  0  0  0  0  0  0  0  0  0  0
    2.9070   -2.9890   -0.1270 H   0  0  0  0  0  0  0  0  0  0  0  0
    0.6180   -0.5850   -1.1670 C   0  0  1  0  0  3  0  0  0  0  0  0
    0.4150   -1.5100   -2.4200 C   0  0  0  0  0  3  0  0  0  0  0  0
    1.1740   -2.8480   -2.3710 C   0  0  0  0  0  1  0  0  0  0  0  0
   -1.0730   -1.8130   -2.6730 C   0  0  0  0  0  1  0  0  0  0  0  0
    0.1720   -1.2070    0.1480 C   0  0  0  0  0  3  0  0  0  0  0  0
    1.0280   -1.3120    1.1830 O   0  0  0  0  0  0  0  0  0  0  0  0
    0.7430   -1.6970    1.9890 H   0  0  0  0  0  0  0  0  0  0  0  0
   -1.1030   -1.6010    0.3200 O   0  0  0  0  0  0  0  0  0  0  0  0
   -1.7130   -1.5360   -0.3890 H   0  0  0  0  0  0  0  0  0  0  0  0
  2  1  1  0  0  0  0
  2  4  1  0  0  0  0
  3  2  2  0  0  0  0
  4 11  1  0  0  0  0
  5  4  1  6  0  0  0
  5  6  1  0  0  0  0
  6  7  1  0  0  0  0
  6 12  1  0  0  0  0
  7  8  2  0  0  0  0
  9  7  1  0  0  0  0
 10  1  1  1  0  0  0
 10  9  1  0  0  0  0
 10  5  1  0  0  0  0
 13  9  1  0  0  0  0
 14 15  1  6  0  0  0
 14  1  1  0  0  0  0
 14 18  1  0  0  0  0
 15 16  1  0  0  0  0
 17 15  1  0  0  0  0
 18 21  1  0  0  0  0
 18 19  1  0  0  0  0
 19 20  1  0  0  0  0
 22 21  1  0  0  0  0
M  END
>  <REMARK>
  5 active torsions:
  status: ('A' for Active; 'I' for Inactive)
    1  A    between atoms: C_2  and  C_4 
    2  A    between atoms: C_4  and  C_5 
    3  A    between atoms: C_4  and  N_8 
    4  A    between atoms: C_5  and  O_6 
    5  A    between atoms: C_5  and  O_7 

>  <TORSDO>
F 5

$$$$
C:\Users\siddh\.mgltools\PyRx\Ligands\ZINC000002491360_uff_E=452.24.pdbqt
 OpenBabel04182118313D

 19 20  0  0  0  0  0  0  0  0999 V2000
   -0.7570    1.9540    1.5430 C   0  0  0  0  0  0  0  0  0  0  0  0
   -0.3930    3.1680    2.1340 C   0  0  0  0  0  3  0  0  0  0  0  0
   -0.9830    3.5640    3.3340 C   0  0  0  0  0  3  0  0  0  0  0  0
   -1.9400    2.7530    3.9480 C   0  0  0  0  0  3  0  0  0  0  0  0
   -2.3160    1.5280    3.3630 C   0  0  0  0  0  0  0  0  0  0  0  0
   -1.7140    1.1360    2.1550 C   0  0  0  0  0  3  0  0  0  0  0  0
    0.0020    1.4450   -0.0180 S   0  0  0  0  0  0  0  0  0  0  0  0
    0.0540   -0.2790   -0.0790 O   0  0  0  0  0  0  0  0  0  0  0  0
    0.4600   -0.5610   -0.9140 H   0  0  0  0  0  0  0  0  0  0  0  0
    1.6050    2.0810   -0.0920 O   0  0  0  0  0  0  0  0  0  0  0  0
    2.0210    1.8140   -0.9260 H   0  0  0  0  0  0  0  0  0  0  0  0
   -0.9500    2.0630   -1.3180 O   0  0  0  0  0  0  0  0  0  0  0  0
   -0.5550    1.7980   -2.1630 H   0  0  0  0  0  0  0  0  0  0  0  0
   -3.3020    0.6810    3.9850 N   0  0  0  0  0  0  0  0  0  0  0  0
   -3.6590   -0.5130    3.5430 N   0  0  0  0  0  0  0  0  0  0  0  0
   -4.5830   -1.0100    4.3510 N   0  0  0  0  0  0  0  0  0  0  0  0
   -4.8360   -0.1410    5.3210 N   0  0  0  0  0  0  0  0  0  0  0  0
   -4.0340    0.9130    5.0900 C   0  0  0  0  0  2  0  0  0  0  0  0
   -5.5020   -0.2510    6.0860 H   0  0  0  0  0  0  0  0  0  0  0  0
  1  2  2  0  0  0  0
  1  6  1  0  0  0  0
  2  3  1  0  0  0  0
  3  4  2  0  0  0  0
  5  4  1  0  0  0  0
  5 14  1  0  0  0  0
  6  5  2  0  0  0  0
  7  1  1  0  0  0  0
  8  7  1  0  0  0  0
  9  8  1  0  0  0  0
 10  7  1  0  0  0  0
 11 10  1  0  0  0  0
 12  7  1  0  0  0  0
 13 12  1  0  0  0  0
 14 18  1  0  0  0  0
 15 14  1  0  0  0  0
 15 16  2  0  0  0  0
 16 17  1  0  0  0  0
 17 19  1  0  0  0  0
 18 17  1  0  0  0  0
M  END
>  <REMARK>
  5 active torsions:
  status: ('A' for Active; 'I' for Inactive)
    1  A    between atoms: O_1  and  S_2 
    2  A    between atoms: S_2  and  O_3 
    3  A    between atoms: S_2  and  O_4 
    4  A    between atoms: S_2  and  C_5 
    5  A    between atoms: C_9  and  N_10 

>  <TORSDO>
F 5

$$$$
C:\Users\siddh\.mgltools\PyRx\Ligands\ZINC000002473620_uff_E=116.22.pdbqt
 OpenBabel04182118313D

 18 18  0  0  1  0  0  0  0  0999 V2000
   -4.4780   -4.7980    0.0180 C   0  0  1  0  0  3  0  0  0  0  0  0
   -5.4770   -3.8770    0.0290 N   0  0  0  0  0  0  0  0  0  0  0  0
   -5.2440   -2.8840    0.0280 H   0  0  0  0  0  0  0  0  0  0  0  0
   -6.7610   -4.2490    0.0390 N   0  0  0  0  0  0  0  0  0  0  0  0
   -7.1030   -5.5790    0.0390 C   0  0  0  0  0  0  0  0  0  0  0  0
   -8.2750   -5.9130    0.0490 O   0  0  0  0  0  0  0  0  0  0  0  0
   -6.1240   -6.5300    0.0290 N   0  0  0  0  0  0  0  0  0  0  0  0
   -4.8100   -6.1570    0.0180 C   0  0  0  0  0  0  0  0  0  0  0  0
   -3.9400   -7.0100    0.0090 O   0  0  0  0  0  0  0  0  0  0  0  0
   -7.5070   -3.5190    0.0470 H   0  0  0  0  0  0  0  0  0  0  0  0
   -6.3650   -7.4840    0.0290 H   0  0  0  0  0  0  0  0  0  0  0  0
   -2.7430   -4.3120    0.0030 S   0  0  0  0  0  0  0  0  0  0  0  0
   -2.8670   -2.4790    0.0160 C   0  0  0  0  0  2  0  0  0  0  0  0
   -1.4730   -1.8910    0.0060 C   0  0  0  0  0  0  0  0  0  0  0  0
   -0.4990   -2.6340   -0.0080 O   0  0  0  0  0  0  0  0  0  0  0  0
   -1.2900   -0.5420    0.0120 O   0  0  0  0  0  0  0  0  0  0  0  0
   -0.0200    0.0110    0.0020 C   0  0  0  0  0  2  0  0  0  0  0  0
   -0.0750    1.5300    0.0110 C   0  0  0  0  0  1  0  0  0  0  0  0
  1 12  1  6  0  0  0
  1  8  1  0  0  0  0
  1  2  1  0  0  0  0
  2  4  1  0  0  0  0
  3  2  1  0  0  0  0
  4  5  1  0  0  0  0
  4 10  1  0  0  0  0
  5  6  2  0  0  0  0
  7 11  1  0  0  0  0
  7  5  1  0  0  0  0
  8  7  1  0  0  0  0
  9  8  2  0  0  0  0
 12 13  1  0  0  0  0
 14 16  1  0  0  0  0
 14 13  1  0  0  0  0
 15 14  2  0  0  0  0
 17 18  1  0  0  0  0
 17 16  1  0  0  0  0
M  END
>  <REMARK>
  5 active torsions:
  status: ('A' for Active; 'I' for Inactive)
    1  A    between atoms: C_2  and  O_3 
    2  A    between atoms: O_3  and  C_4 
    3  A    between atoms: C_4  and  C_6 
    4  A    between atoms: C_6  and  S_7 
    5  A    between atoms: S_7  and  C_8 

>  <TORSDO>
F 5

$$$$
C:\Users\siddh\.mgltools\PyRx\Ligands\ZINC000002468762_uff_E=326.37.pdbqt
 OpenBabel04182118313D

 23 24  0  0  1  0  0  0  0  0999 V2000
    0.0720   -0.1220    0.0010 O   0  0  0  0  0  0  0  0  0  0  0  0
    0.0140    1.2250    0.0070 C   0  0  0  0  0  3  0  0  0  0  0  0
    0.1810   -1.0530   -0.0110 H   0  0  0  0  0  0  0  0  0  0  0  0
    1.1550    1.9370    0.0040 O   0  0  0  0  0  0  0  0  0  0  0  0
    1.1230    2.8740    0.0080 H   0  0  0  0  0  0  0  0  0  0  0  0
   -1.3050    1.9420    0.0190 C   0  0  0  0  0  2  0  0  0  0  0  0
   -2.4710    0.9600    0.0200 C   0  0  0  0  0  2  0  0  0  0  0  0
   -3.7320    1.6610    0.0300 N   0  0  0  0  0  0  0  0  0  0  0  0
   -4.9470    0.9370    0.0320 C   0  0  2  0  0  3  0  0  0  0  0  0
   -6.1450    1.6170    0.0370 N   0  0  0  0  0  0  0  0  0  0  0  0
   -4.9280   -0.4330    0.0290 N   0  0  0  0  0  0  0  0  0  0  0  0
   -7.3410    0.9290    0.0380 C   0  0  0  0  0  0  0  0  0  0  0  0
   -6.1460    2.6610    0.0390 H   0  0  0  0  0  0  0  0  0  0  0  0
   -7.2940   -0.4530    0.0350 C   0  0  0  0  0  0  0  0  0  0  0  0
   -8.4030    1.5270    0.0410 O   0  0  0  0  0  0  0  0  0  0  0  0
   -6.1070   -1.0910    0.0300 C   0  0  0  0  0  0  0  0  0  0  0  0
   -8.2930   -1.3540    0.0350 N   0  0  0  0  0  0  0  0  0  0  0  0
   -6.3000   -2.4110    0.0290 N   0  0  0  0  0  0  0  0  0  0  0  0
   -7.6490   -2.5540    0.0320 C   0  0  0  0  0  2  0  0  0  0  0  0
   -5.5780   -3.1660    0.0260 H   0  0  0  0  0  0  0  0  0  0  0  0
   -9.2980   -1.1800    0.0380 H   0  0  0  0  0  0  0  0  0  0  0  0
   -4.0450   -0.9430    0.0250 H   0  0  0  0  0  0  0  0  0  0  0  0
   -3.7550    2.6920    0.0340 H   0  0  0  0  0  0  0  0  0  0  0  0
  1  2  1  0  0  0  0
  2  6  1  0  0  0  0
  3  1  1  0  0  0  0
  4  2  1  0  0  0  0
  4  5  1  0  0  0  0
  6  7  1  0  0  0  0
  7  8  1  0  0  0  0
  8 23  1  0  0  0  0
  9  8  1  1  0  0  0
  9 10  1  0  0  0  0
 10 12  1  0  0  0  0
 10 13  1  0  0  0  0
 11 16  1  0  0  0  0
 11  9  1  0  0  0  0
 12 15  2  0  0  0  0
 14 17  1  0  0  0  0
 14 12  1  0  0  0  0
 16 14  2  0  0  0  0
 17 21  1  0  0  0  0
 18 16  1  0  0  0  0
 18 19  1  0  0  0  0
 19 17  1  0  0  0  0
 20 18  1  0  0  0  0
 22 11  1  0  0  0  0
M  END
>  <REMARK>
  4 active torsions:
  status: ('A' for Active; 'I' for Inactive)
    1  A    between atoms: C_2  and  O_3 
    2  A    between atoms: C_2  and  C_4 
    3  A    between atoms: C_4  and  C_5 
    4  A    between atoms: C_5  and  N_6 
       I    between atoms: N_6  and  C_7 

>  <TORSDO>
F 4

$$$$
C:\Users\siddh\.mgltools\PyRx\Ligands\ZINC000002461422_uff_E=123.02.pdbqt
 OpenBabel04182118313D

 19 19  0  0  1  0  0  0  0  0999 V2000
    2.2450   -6.3260   -3.8540 C   0  0  2  0  0  3  0  0  0  0  0  0
    1.6570   -6.9650   -2.8090 N   0  0  0  0  0  0  0  0  0  0  0  0
    1.2270   -6.4170   -2.0640 H   0  0  0  0  0  0  0  0  0  0  0  0
    1.6330   -8.2990   -2.7410 N   0  0  0  0  0  0  0  0  0  0  0  0
    2.2040   -9.0600   -3.7300 C   0  0  0  0  0  0  0  0  0  0  0  0
    2.1790  -10.2770   -3.6620 O   0  0  0  0  0  0  0  0  0  0  0  0
    2.8030   -8.4500   -4.7940 N   0  0  0  0  0  0  0  0  0  0  0  0
    2.8320   -7.0860   -4.8710 C   0  0  0  0  0  0  0  0  0  0  0  0
    3.3680   -6.5460   -5.8230 O   0  0  0  0  0  0  0  0  0  0  0  0
    1.1730   -8.7610   -1.9260 H   0  0  0  0  0  0  0  0  0  0  0  0
    3.2140   -8.9920   -5.5050 H   0  0  0  0  0  0  0  0  0  0  0  0
    2.2840   -4.5300   -3.9560 S   0  0  0  0  0  0  0  0  0  0  0  0
    1.4080   -4.0450   -2.4130 C   0  0  0  0  0  2  0  0  0  0  0  0
    1.3540   -2.5350   -2.3450 C   0  0  0  0  0  0  0  0  0  0  0  0
    1.8560   -1.8710   -3.2450 O   0  0  0  0  0  0  0  0  0  0  0  0
    0.7570   -1.9020   -1.2990 O   0  0  0  0  0  0  0  0  0  0  0  0
    0.7120   -0.5180   -1.2450 C   0  0  0  0  0  2  0  0  0  0  0  0
   -0.0010   -0.0190    0.0080 C   0  0  0  0  0  2  0  0  0  0  0  0
   -0.0250    1.5110    0.0210 C   0  0  0  0  0  1  0  0  0  0  0  0
  1 12  1  1  0  0  0
  1  2  1  0  0  0  0
  2  4  1  0  0  0  0
  2  3  1  0  0  0  0
  4 10  1  0  0  0  0
  5  6  2  0  0  0  0
  5  4  1  0  0  0  0
  7  5  1  0  0  0  0
  8  7  1  0  0  0  0
  8  1  1  0  0  0  0
  9  8  2  0  0  0  0
 11  7  1  0  0  0  0
 12 13  1  0  0  0  0
 13 14  1  0  0  0  0
 14 16  1  0  0  0  0
 15 14  2  0  0  0  0
 16 17  1  0  0  0  0
 17 18  1  0  0  0  0
 18 19  1  0  0  0  0
M  END
>  <REMARK>
  6 active torsions:
  status: ('A' for Active; 'I' for Inactive)
    1  A    between atoms: C_2  and  C_3 
    2  A    between atoms: C_3  and  O_4 
    3  A    between atoms: O_4  and  C_5 
    4  A    between atoms: C_5  and  C_7 
    5  A    between atoms: C_7  and  S_8 
    6  A    between atoms: S_8  and  C_9 

>  <TORSDO>
F 6

$$$$
C:\Users\siddh\.mgltools\PyRx\Ligands\ZINC000002456662_uff_E=191.12.pdbqt
 OpenBabel04182118313D

 16 16  0  0  0  0  0  0  0  0999 V2000
   -1.0640   -0.5640    0.7320 N   0  0  0  0  0  0  0  0  0  0  0  0
   -2.1300   -0.0360    1.6150 C   0  0  0  0  0  2  0  0  0  0  0  0
   -3.4970   -0.4820    1.0950 C   0  0  0  0  0  2  0  0  0  0  0  0
   -3.5300   -1.9390    0.9820 N   0  0  0  0  0  0  0  0  0  0  0  0
   -4.5040   -2.6660    1.6490 C   0  0  0  0  0  0  0  0  0  0  0  0
   -5.2630   -2.0810    2.4080 O   0  0  0  0  0  0  0  0  0  0  0  0
   -2.4700   -2.5230    0.1630 C   0  0  0  0  0  2  0  0  0  0  0  0
   -1.1160   -2.0440    0.6960 C   0  0  0  0  0  2  0  0  0  0  0  0
   -4.7360   -4.1380    1.4940 C   0  0  0  0  0  3  0  0  0  0  0  0
   -5.6310   -4.7380    2.3050 O   0  0  0  0  0  0  0  0  0  0  0  0
   -5.7920   -5.6570    2.2260 H   0  0  0  0  0  0  0  0  0  0  0  0
   -4.1800   -4.8690    0.5140 O   0  0  0  0  0  0  0  0  0  0  0  0
   -3.5550   -4.4780   -0.0650 H   0  0  0  0  0  0  0  0  0  0  0  0
    0.3080   -0.0600    1.0250 C   0  0  0  0  0  3  0  0  0  0  0  0
    0.4010    1.4660    0.8570 C   0  0  0  0  0  1  0  0  0  0  0  0
    0.8370   -0.4750    2.4120 C   0  0  0  0  0  1  0  0  0  0  0  0
  1 14  1  0  0  0  0
  1  2  1  0  0  0  0
  3  2  1  0  0  0  0
  4  3  1  0  0  0  0
  4  5  1  0  0  0  0
  5  6  2  0  0  0  0
  7  8  1  0  0  0  0
  7  4  1  0  0  0  0
  8  1  1  0  0  0  0
  9  5  1  0  0  0  0
  9 10  1  0  0  0  0
 11 10  1  0  0  0  0
 12  9  1  0  0  0  0
 13 12  1  0  0  0  0
 14 16  1  0  0  0  0
 15 14  1  0  0  0  0
M  END
>  <REMARK>
  4 active torsions:
  status: ('A' for Active; 'I' for Inactive)
    1  A    between atoms: C_2  and  N_4 
       I    between atoms: N_7  and  C_8 
    2  A    between atoms: C_8  and  C_10 
    3  A    between atoms: C_10  and  O_11 
    4  A    between atoms: C_10  and  O_12 

>  <TORSDO>
F 4

$$$$
C:\Users\siddh\.mgltools\PyRx\Ligands\ZINC000002424934_uff_E=747.58.pdbqt
 OpenBabel04182118313D

 19 21  0  0  1  0  0  0  0  0999 V2000
   -0.0780    1.4350   -0.0130 C   0  0  0  0  0  1  0  0  0  0  0  0
    0.2010    0.0150   -0.0190 N   0  0  0  0  0  0  0  0  0  0  0  0
    0.0460   -0.8070   -1.0880 C   0  0  0  0  0  0  0  0  0  0  0  0
   -0.2290   -0.4160   -2.2150 O   0  0  0  0  0  0  0  0  0  0  0  0
    0.2300   -2.1080   -0.7670 N   0  0  0  0  0  0  0  0  0  0  0  0
    0.1620   -3.2400   -1.6650 C   0  0  0  0  0  1  0  0  0  0  0  0
    0.7430   -2.1370    0.5760 C   0  0  2  0  0  3  0  0  0  0  0  0
    0.4590   -3.2210    1.4980 N   0  0  0  0  0  0  0  0  0  0  0  0
    0.7710   -2.8910    2.8510 C   0  0  0  0  0  0  0  0  0  0  0  0
    0.9050   -3.6900    3.9140 N   0  0  0  0  0  0  0  0  0  0  0  0
    0.7920   -4.7030    3.9480 H   0  0  0  0  0  0  0  0  0  0  0  0
    1.2150   -2.8850    4.9090 O   0  0  0  0  0  0  0  0  0  0  0  0
    1.2800   -1.6190    4.5560 N   0  0  0  0  0  0  0  0  0  0  0  0
    1.5000   -0.8200    5.1510 H   0  0  0  0  0  0  0  0  0  0  0  0
    0.9970   -1.6060    3.2500 C   0  0  0  0  0  0  0  0  0  0  0  0
    0.8690   -0.4920    2.3620 N   0  0  0  0  0  0  0  0  0  0  0  0
    0.1500   -0.8340    1.1450 C   0  0  1  0  0  3  0  0  0  0  0  0
    0.1780   -4.1640    1.1950 H   0  0  0  0  0  0  0  0  0  0  0  0
    1.2270    0.4050    2.5530 H   0  0  0  0  0  0  0  0  0  0  0  0
  2  1  1  0  0  0  0
  3  5  1  0  0  0  0
  3  2  1  0  0  0  0
  4  3  2  0  0  0  0
  6  5  1  0  0  0  0
  7  5  1  6  0  0  0
  7 17  1  0  0  0  0
  7  8  1  0  0  0  0
  8  9  1  0  0  0  0
  9 15  2  0  0  0  0
  9 10  1  0  0  0  0
 10 11  1  0  0  0  0
 10 12  1  0  0  0  0
 13 12  1  0  0  0  0
 13 14  1  0  0  0  0
 15 13  1  0  0  0  0
 16 19  1  0  0  0  0
 16 15  1  0  0  0  0
 17  2  1  6  0  0  0
 17 16  1  0  0  0  0
 18  8  1  0  0  0  0
M  END
>  <REMARK>
  0 active torsions:
  status: ('A' for Active; 'I' for Inactive)

>  <TORSDO>
F 0

$$$$
C:\Users\siddh\.mgltools\PyRx\Ligands\ZINC000002392043_uff_E=147.92.pdbqt
 OpenBabel04182118313D

 23 24  0  0  1  0  0  0  0  0999 V2000
    0.0360    1.5090    0.0090 C   0  0  0  0  0  1  0  0  0  0  0  0
    0.0360    0.0670    0.0070 N   0  0  0  0  0  0  0  0  0  0  0  0
   -1.1800   -0.6570    0.0230 C   0  0  1  0  0  3  0  0  0  0  0  0
   -2.3700   -0.0010    0.0300 N   0  0  0  0  0  0  0  0  0  0  0  0
   -2.3890    1.0190    0.0280 H   0  0  0  0  0  0  0  0  0  0  0  0
   -3.5320   -0.6970    0.0400 C   0  0  0  0  0  0  0  0  0  0  0  0
   -3.5040   -2.0520    0.0400 N   0  0  0  0  0  0  0  0  0  0  0  0
   -4.3790   -2.5760    0.0440 H   0  0  0  0  0  0  0  0  0  0  0  0
   -2.3190   -2.7180    0.0350 C   0  0  1  0  0  3  0  0  0  0  0  0
   -2.2950   -4.1440   -0.0070 N   0  0  0  0  0  0  0  0  0  0  0  0
   -1.0470   -4.8870   -0.0120 C   0  0  0  0  0  2  0  0  0  0  0  0
   -1.1010   -5.9000    1.1360 C   0  0  0  0  0  2  0  0  0  0  0  0
   -2.2530   -6.7230    1.0170 O   0  0  0  0  0  0  0  0  0  0  0  0
   -3.4270   -5.9340    1.1430 C   0  0  0  0  0  2  0  0  0  0  0  0
   -3.5190   -4.9250   -0.0060 C   0  0  0  0  0  2  0  0  0  0  0  0
   -1.1590   -2.0110    0.0240 N   0  0  0  0  0  0  0  0  0  0  0  0
   -0.2660   -2.5040    0.0160 H   0  0  0  0  0  0  0  0  0  0  0  0
    0.9330   -0.4430   -0.0050 H   0  0  0  0  0  0  0  0  0  0  0  0
   -4.8170    0.0130    0.0400 C   0  0  0  0  0  0  0  0  0  0  0  0
   -4.8460    1.3590    0.0350 O   0  0  0  0  0  0  0  0  0  0  0  0
   -5.6670    1.8100    0.0350 H   0  0  0  0  0  0  0  0  0  0  0  0
   -5.9720   -0.6800    0.0440 O   0  0  0  0  0  0  0  0  0  0  0  0
   -5.9560   -1.6170    0.0470 H   0  0  0  0  0  0  0  0  0  0  0  0
  2  1  1  0  0  0  0
  3  2  1  6  0  0  0
  3 16  1  0  0  0  0
  3  4  1  0  0  0  0
  4  6  1  0  0  0  0
  5  4  1  0  0  0  0
  6  7  1  0  0  0  0
  6 19  2  0  0  0  0
  7  8  1  0  0  0  0
  9 10  1  6  0  0  0
  9  7  1  0  0  0  0
 10 15  1  0  0  0  0
 11 10  1  0  0  0  0
 11 12  1  0  0  0  0
 13 12  1  0  0  0  0
 13 14  1  0  0  0  0
 15 14  1  0  0  0  0
 16  9  1  0  0  0  0
 17 16  1  0  0  0  0
 18  2  1  0  0  0  0
 19 22  1  0  0  0  0
 20 21  1  0  0  0  0
 20 19  1  0  0  0  0
 22 23  1  0  0  0  0
M  END
>  <REMARK>
  3 active torsions:
  status: ('A' for Active; 'I' for Inactive)
       I    between atoms: N_2  and  C_3 
    1  A    between atoms: C_6  and  C_7 
    2  A    between atoms: C_7  and  O_8 
    3  A    between atoms: C_7  and  O_9 
       I    between atoms: C_12  and  N_13 

>  <TORSDO>
F 3

$$$$
C:\Users\siddh\.mgltools\PyRx\Ligands\ZINC000002390948_uff_E=96.70.pdbqt
 OpenBabel04182118313D

 20 19  0  0  1  0  0  0  0  0999 V2000
   -0.1330   -2.7260   -2.5500 C   0  0  0  0  0  0  0  0  0  0  0  0
   -0.2770   -1.8580   -3.3990 O   0  0  0  0  0  0  0  0  0  0  0  0
    0.0210   -4.0270   -2.9180 N   0  0  0  0  0  0  0  0  0  0  0  0
    0.1910   -4.7300   -2.1820 H   0  0  0  0  0  0  0  0  0  0  0  0
    0.0030   -4.4500   -4.3120 C   0  0  1  0  0  3  0  0  0  0  0  0
    0.7040   -5.8160   -4.4720 C   0  0  0  0  0  2  0  0  0  0  0  0
    2.1990   -5.7930   -4.0490 C   0  0  0  0  0  3  0  0  0  0  0  0
    2.7840   -7.2070   -4.1270 C   0  0  0  0  0  1  0  0  0  0  0  0
    3.0420   -4.8440   -4.9180 C   0  0  0  0  0  1  0  0  0  0  0  0
   -1.4200   -4.5250   -4.7960 C   0  0  0  0  0  3  0  0  0  0  0  0
   -1.8230   -3.7650   -5.8330 O   0  0  0  0  0  0  0  0  0  0  0  0
   -2.7090   -3.8140   -6.1330 H   0  0  0  0  0  0  0  0  0  0  0  0
   -2.2980   -5.3530   -4.1960 O   0  0  0  0  0  0  0  0  0  0  0  0
   -2.0240   -5.8830   -3.4750 H   0  0  0  0  0  0  0  0  0  0  0  0
   -0.1120   -2.3710   -1.0790 C   0  0  0  0  0  2  0  0  0  0  0  0
   -0.1620   -0.9380   -0.8310 N   0  0  0  0  0  0  0  0  0  0  0  0
   -0.2520   -0.4430    0.4320 C   0  0  0  0  0  0  0  0  0  0  0  0
   -0.2710    1.0390    0.6550 C   0  0  0  0  0  1  0  0  0  0  0  0
   -0.3280   -1.1980    1.3920 O   0  0  0  0  0  0  0  0  0  0  0  0
   -0.1250   -0.2730   -1.6180 H   0  0  0  0  0  0  0  0  0  0  0  0
  1 15  1  0  0  0  0
  2  1  2  0  0  0  0
  3  1  1  0  0  0  0
  3  4  1  0  0  0  0
  5  6  1  1  0  0  0
  5  3  1  0  0  0  0
  6  7  1  0  0  0  0
  8  7  1  0  0  0  0
  9  7  1  0  0  0  0
 10  5  1  0  0  0  0
 10 13  1  0  0  0  0
 11 10  1  0  0  0  0
 12 11  1  0  0  0  0
 13 14  1  0  0  0  0
 15 16  1  0  0  0  0
 16 17  1  0  0  0  0
 17 18  1  0  0  0  0
 17 19  2  0  0  0  0
 20 16  1  0  0  0  0
M  END
>  <REMARK>
  8 active torsions:
  status: ('A' for Active; 'I' for Inactive)
       I    between atoms: C_2  and  N_4 
    1  A    between atoms: N_4  and  C_5 
    2  A    between atoms: C_5  and  C_6 
       I    between atoms: C_6  and  N_8 
    3  A    between atoms: N_8  and  C_9 
    4  A    between atoms: C_9  and  C_10 
    5  A    between atoms: C_9  and  C_14 
    6  A    between atoms: C_10  and  C_11 
    7  A    between atoms: C_14  and  O_15 
    8  A    between atoms: C_14  and  O_16 

>  <TORSDO>
F 8

$$$$
C:\Users\siddh\.mgltools\PyRx\Ligands\ZINC000002382906_uff_E=295.05.pdbqt
 OpenBabel04182118313D

 17 18  0  0  1  0  0  0  0  0999 V2000
    0.4680   -0.5780   -0.8980 C   0  0  1  0  0  3  0  0  0  0  0  0
    1.7790   -0.0720   -1.0600 O   0  0  0  0  0  0  0  0  0  0  0  0
    2.5760   -1.1370   -1.5380 C   0  0  1  0  0  3  0  0  0  0  0  0
    1.6700   -2.3600   -1.7460 C   0  0  1  0  0  3  0  0  0  0  0  0
    2.2790   -3.5360   -1.2890 O   0  0  0  0  0  0  0  0  0  0  0  0
    1.8580   -3.6540    0.0650 C   0  0  0  0  0  0  0  0  0  0  0  0
    1.0930   -4.9750    0.2400 C   0  0  0  0  0  1  0  0  0  0  0  0
    3.0720   -3.6380    1.0020 C   0  0  0  0  0  1  0  0  0  0  0  0
    1.0260   -2.5610    0.4080 O   0  0  0  0  0  0  0  0  0  0  0  0
    0.5620   -2.0940   -0.8210 C   0  0  1  0  0  3  0  0  0  0  0  0
    3.2880   -0.7600   -2.8070 C   0  0  0  0  0  3  0  0  0  0  0  0
    3.1030    0.4550   -3.3550 O   0  0  0  0  0  0  0  0  0  0  0  0
    3.5490    0.6850   -4.1460 H   0  0  0  0  0  0  0  0  0  0  0  0
    4.1130   -1.6430   -3.4050 O   0  0  0  0  0  0  0  0  0  0  0  0
    4.2450   -2.4910   -3.0280 H   0  0  0  0  0  0  0  0  0  0  0  0
   -0.1490   -0.0910    0.2780 O   0  0  0  0  0  0  0  0  0  0  0  0
   -0.2250    1.3160    0.2430 C   0  0  0  0  0  1  0  0  0  0  0  0
  1 10  1  0  0  0  0
  1 16  1  1  0  0  0
  2  1  1  0  0  0  0
  3 11  1  6  0  0  0
  3  2  1  0  0  0  0
  4  3  1  0  0  0  0
  4  5  1  1  0  0  0
  4 10  1  0  0  0  0
  5  6  1  0  0  0  0
  6  7  1  0  0  0  0
  6  9  1  0  0  0  0
  6  8  1  0  0  0  0
 10  9  1  1  0  0  0
 12 11  1  0  0  0  0
 13 12  1  0  0  0  0
 14 15  1  0  0  0  0
 14 11  1  0  0  0  0
 17 16  1  0  0  0  0
M  END
>  <REMARK>
  4 active torsions:
  status: ('A' for Active; 'I' for Inactive)
    1  A    between atoms: O_2  and  C_3 
    2  A    between atoms: C_5  and  C_6 
    3  A    between atoms: C_6  and  O_7 
    4  A    between atoms: C_6  and  O_8 

>  <TORSDO>
F 4

$$$$
C:\Users\siddh\.mgltools\PyRx\Ligands\ZINC000002331032_uff_E=352.99.pdbqt
 OpenBabel04182118313D

 19 19  0  0  1  0  0  0  0  0999 V2000
    0.7450   -0.4910    1.2510 C   0  0  2  0  0  3  0  0  0  0  0  0
    2.0610   -0.7850    1.2670 N   0  0  0  0  0  0  0  0  0  0  0  0
    2.7140   -0.6820    0.4910 H   0  0  0  0  0  0  0  0  0  0  0  0
    2.3480   -1.2350    2.4840 N   0  0  0  0  0  0  0  0  0  0  0  0
    3.2640   -1.5370    2.8170 H   0  0  0  0  0  0  0  0  0  0  0  0
    1.2020   -1.2180    3.1970 C   0  0  1  0  0  3  0  0  0  0  0  0
    0.1930   -0.7570    2.4480 N   0  0  0  0  0  0  0  0  0  0  0  0
    1.0250   -1.7410    4.9120 S   0  0  0  0  0  0  0  0  0  0  0  0
    2.7900   -2.0960    5.2320 C   0  0  0  0  0  2  0  0  0  0  0  0
    3.0030   -2.5630    6.6440 C   0  0  0  0  0  3  0  0  0  0  0  0
    1.9710   -2.6710    7.5050 O   0  0  0  0  0  0  0  0  0  0  0  0
    2.1210   -2.9640    8.3820 H   0  0  0  0  0  0  0  0  0  0  0  0
    4.2450   -2.8800    7.0570 O   0  0  0  0  0  0  0  0  0  0  0  0
    4.9680   -2.8080    6.4660 H   0  0  0  0  0  0  0  0  0  0  0  0
   -1.1460   -0.6060    2.8480 N   0  0  0  0  0  0  0  0  0  0  0  0
   -1.3890    0.4080    2.8170 H   0  0  0  0  0  0  0  0  0  0  0  0
   -1.7530   -1.1360    2.1820 H   0  0  0  0  0  0  0  0  0  0  0  0
    0.0150    0.0190    0.0430 C   0  0  0  0  0  2  0  0  0  0  0  0
   -0.0260    1.5410    0.0330 C   0  0  0  0  0  1  0  0  0  0  0  0
  1 18  1  6  0  0  0
  1  2  1  0  0  0  0
  1  7  1  0  0  0  0
  2  4  1  0  0  0  0
  3  2  1  0  0  0  0
  4  5  1  0  0  0  0
  4  6  1  0  0  0  0
  6  8  1  6  0  0  0
  7 15  1  0  0  0  0
  7  6  1  0  0  0  0
  8  9  1  0  0  0  0
  9 10  1  0  0  0  0
 10 13  1  0  0  0  0
 10 11  1  0  0  0  0
 11 12  1  0  0  0  0
 14 13  1  0  0  0  0
 16 15  1  0  0  0  0
 17 15  1  0  0  0  0
 19 18  1  0  0  0  0
M  END
>  <REMARK>
  7 active torsions:
  status: ('A' for Active; 'I' for Inactive)
    1  A    between atoms: C_2  and  C_3 
    2  A    between atoms: C_8  and  S_9 
    3  A    between atoms: S_9  and  C_10 
    4  A    between atoms: C_10  and  C_11 
    5  A    between atoms: C_11  and  O_12 
    6  A    between atoms: C_11  and  O_13 
    7  A    between atoms: N_14  and  N_15 

>  <TORSDO>
F 7

$$$$
C:\Users\siddh\.mgltools\PyRx\Ligands\ZINC000002308577_uff_E=768.80.pdbqt
 OpenBabel04182118313D

 28 30  0  0  1  0  0  0  0  0999 V2000
    2.6350   -0.3210   -0.0190 C   0  0  1  0  0  3  0  0  0  0  0  0
    2.9740    0.9790   -0.0140 N   0  0  0  0  0  0  0  0  0  0  0  0
    2.3330    1.7720   -0.0060 H   0  0  0  0  0  0  0  0  0  0  0  0
    4.2900    1.0370   -0.0230 N   0  0  0  0  0  0  0  0  0  0  0  0
    4.8590    1.8840   -0.0220 H   0  0  0  0  0  0  0  0  0  0  0  0
    4.7440   -0.2270   -0.0320 C   0  0  1  0  0  3  0  0  0  0  0  0
    3.7270   -1.1150   -0.0300 N   0  0  0  0  0  0  0  0  0  0  0  0
    3.7710   -2.0990   -0.0360 H   0  0  0  0  0  0  0  0  0  0  0  0
    1.2440   -0.7990   -0.0120 C   0  0  0  0  0  0  0  0  0  0  0  0
    0.0830   -0.0580   -0.0000 C   0  0  0  0  0  0  0  0  0  0  0  0
   -0.9500   -0.9120    0.0030 N   0  0  0  0  0  0  0  0  0  0  0  0
   -0.4260   -2.1080   -0.0070 O   0  0  0  0  0  0  0  0  0  0  0  0
   -1.9430   -0.6770    0.0110 H   0  0  0  0  0  0  0  0  0  0  0  0
    0.8810   -2.0940   -0.0160 N   0  0  0  0  0  0  0  0  0  0  0  0
    1.5020   -2.9030   -0.0240 H   0  0  0  0  0  0  0  0  0  0  0  0
   -0.0560    1.3520    0.0080 N   0  0  0  0  0  0  0  0  0  0  0  0
    0.7630    1.9730    0.0060 H   0  0  0  0  0  0  0  0  0  0  0  0
   -0.9940    1.7750    0.0170 H   0  0  0  0  0  0  0  0  0  0  0  0
    6.1720   -0.5790   -0.0430 C   0  0  0  0  0  0  0  0  0  0  0  0
    7.2620    0.2620   -0.0440 C   0  0  0  0  0  0  0  0  0  0  0  0
    8.3680   -0.4970   -0.0550 N   0  0  0  0  0  0  0  0  0  0  0  0
    7.9520   -1.7350   -0.0610 O   0  0  0  0  0  0  0  0  0  0  0  0
    9.3350   -0.1740   -0.0590 H   0  0  0  0  0  0  0  0  0  0  0  0
    6.6490   -1.8360   -0.0540 N   0  0  0  0  0  0  0  0  0  0  0  0
    6.1020   -2.6980   -0.0560 H   0  0  0  0  0  0  0  0  0  0  0  0
    7.2760    1.6790   -0.0350 N   0  0  0  0  0  0  0  0  0  0  0  0
    8.1730    2.1840   -0.0360 H   0  0  0  0  0  0  0  0  0  0  0  0
    6.4050    2.2240   -0.0260 H   0  0  0  0  0  0  0  0  0  0  0  0
  1  2  1  0  0  0  0
  1  9  1  1  0  0  0
  2  3  1  0  0  0  0
  4  5  1  0  0  0  0
  4  2  1  0  0  0  0
  6 19  1  6  0  0  0
  6  7  1  0  0  0  0
  6  4  1  0  0  0  0
  7  1  1  0  0  0  0
  8  7  1  0  0  0  0
  9 10  2  0  0  0  0
 10 11  1  0  0  0  0
 10 16  1  0  0  0  0
 11 13  1  0  0  0  0
 12 11  1  0  0  0  0
 14  9  1  0  0  0  0
 14 12  1  0  0  0  0
 15 14  1  0  0  0  0
 16 18  1  0  0  0  0
 17 16  1  0  0  0  0
 20 19  2  0  0  0  0
 20 26  1  0  0  0  0
 21 20  1  0  0  0  0
 22 21  1  0  0  0  0
 22 24  1  0  0  0  0
 23 21  1  0  0  0  0
 24 19  1  0  0  0  0
 25 24  1  0  0  0  0
 26 28  1  0  0  0  0
 27 26  1  0  0  0  0
M  END
>  <REMARK>
  4 active torsions:
  status: ('A' for Active; 'I' for Inactive)
    1  A    between atoms: N_1  and  C_2 
    2  A    between atoms: C_8  and  C_9 
    3  A    between atoms: C_14  and  C_15 
    4  A    between atoms: C_21  and  N_22 

>  <TORSDO>
F 4

$$$$
C:\Users\siddh\.mgltools\PyRx\Ligands\ZINC000002293558_uff_E=130.52.pdbqt
 OpenBabel04182118313D

 17 16  0  0  1  0  0  0  0  0999 V2000
    1.4340   -2.4940    2.3650 C   0  0  2  0  0  3  0  0  0  0  0  0
    0.5500   -1.9960    1.1870 C   0  0  0  0  0  2  0  0  0  0  0  0
   -0.8900   -2.4410    1.3220 C   0  0  0  0  0  0  0  0  0  0  0  0
   -1.2540   -3.0720    2.3070 O   0  0  0  0  0  0  0  0  0  0  0  0
   -1.7810   -2.1260    0.3500 O   0  0  0  0  0  0  0  0  0  0  0  0
   -3.1050   -2.5070    0.4150 C   0  0  0  0  0  1  0  0  0  0  0  0
    2.8510   -1.8890    2.3350 C   0  0  0  0  0  2  0  0  0  0  0  0
    2.8430   -0.0440    2.7110 P   0  0  0  0  0  4  0  0  0  0  0  0
    2.1040    0.6150    1.6350 H   0  0  0  0  0  0  0  0  0  0  0  0
    1.9960    0.2940    4.1960 O   0  0  0  0  0  0  0  0  0  0  0  0
    1.1090   -0.0980    4.1590 H   0  0  0  0  0  0  0  0  0  0  0  0
    4.4510    0.6240    2.6840 O   0  0  0  0  0  0  0  0  0  0  0  0
    4.8770    0.4080    1.8390 H   0  0  0  0  0  0  0  0  0  0  0  0
    1.5290   -4.0120    2.3780 C   0  0  0  0  0  0  0  0  0  0  0  0
    1.0350   -4.6770    1.4780 O   0  0  0  0  0  0  0  0  0  0  0  0
    2.1400   -4.6280    3.4240 O   0  0  0  0  0  0  0  0  0  0  0  0
    2.1890   -6.0000    3.5530 C   0  0  0  0  0  1  0  0  0  0  0  0
  1  2  1  6  0  0  0
  1 14  1  0  0  0  0
  2  3  1  0  0  0  0
  3  4  2  0  0  0  0
  5  6  1  0  0  0  0
  5  3  1  0  0  0  0
  7  1  1  0  0  0  0
  7  8  1  0  0  0  0
  8 10  1  0  0  0  0
  9  8  1  0  0  0  0
 11 10  1  0  0  0  0
 12  8  1  0  0  0  0
 13 12  1  0  0  0  0
 14 16  1  0  0  0  0
 15 14  2  0  0  0  0
 16 17  1  0  0  0  0
M  END
>  <REMARK>
  9 active torsions:
  status: ('A' for Active; 'I' for Inactive)
    1  A    between atoms: O_2  and  C_3 
    2  A    between atoms: C_3  and  C_5 
    3  A    between atoms: C_5  and  C_6 
    4  A    between atoms: C_6  and  C_7 
    5  A    between atoms: C_6  and  C_12 
    6  A    between atoms: C_7  and  P_8 
    7  A    between atoms: P_8  and  O_10 
    8  A    between atoms: P_8  and  O_11 
    9  A    between atoms: C_12  and  O_14 

>  <TORSDO>
F 9

$$$$
C:\Users\siddh\.mgltools\PyRx\Ligands\ZINC000002233423_uff_E=638.66.pdbqt
 OpenBabel04182118313D

 18 18  0  0  1  0  0  0  0  0999 V2000
   -0.0370    1.5070    0.0290 C   0  0  0  0  0  1  0  0  0  0  0  0
    0.0070    0.0470   -0.0020 N   0  0  0  0  0  0  0  0  0  0  0  0
    0.0610   -0.6650    1.1790 C   0  0  0  0  0  0  0  0  0  0  0  0
    0.0890   -1.8890    1.1540 O   0  0  0  0  0  0  0  0  0  0  0  0
    0.0010   -0.6470   -1.3010 C   0  0  1  0  0  3  0  0  0  0  0  0
   -1.2920   -0.3840   -2.1040 C   0  0  0  0  0  2  0  0  0  0  0  0
   -0.7630   -0.8730   -3.7460 S   0  0  0  0  0  0  0  0  0  0  0  0
    1.0210   -0.9310   -3.5570 C   0  0  0  0  0  2  0  0  0  0  0  0
   -1.2160    0.1100   -4.8360 O   0  0  0  0  0  0  0  0  0  0  0  0
   -1.3430   -2.2310   -4.1670 O   0  0  0  0  0  0  0  0  0  0  0  0
    1.2000   -0.2320   -2.2020 C   0  0  0  0  0  2  0  0  0  0  0  0
    0.0740    0.0250    2.5080 C   0  0  0  0  0  3  0  0  0  0  0  0
    0.0750   -0.6560    3.6680 C   0  0  0  0  0  3  0  0  0  0  0  0
    0.0780    0.0400    4.9720 C   0  0  0  0  0  3  0  0  0  0  0  0
    0.0840    1.3860    5.0390 O   0  0  0  0  0  0  0  0  0  0  0  0
    0.0860    1.8150    5.8720 H   0  0  0  0  0  0  0  0  0  0  0  0
    0.0700   -0.6790    6.1100 O   0  0  0  0  0  0  0  0  0  0  0  0
    0.0650   -1.6150    6.0730 H   0  0  0  0  0  0  0  0  0  0  0  0
  2  1  1  0  0  0  0
  2  3  1  0  0  0  0
  3 12  1  0  0  0  0
  4  3  2  0  0  0  0
  5  2  1  1  0  0  0
  6  5  1  0  0  0  0
  7  8  1  0  0  0  0
  7  6  1  0  0  0  0
  8 11  1  0  0  0  0
  9  7  2  0  0  0  0
 10  7  2  0  0  0  0
 11  5  1  0  0  0  0
 12 13  2  0  0  0  0
 13 14  1  0  0  0  0
 14 15  1  0  0  0  0
 14 17  1  0  0  0  0
 15 16  1  0  0  0  0
 18 17  1  0  0  0  0
M  END
>  <REMARK>
  5 active torsions:
  status: ('A' for Active; 'I' for Inactive)
       I    between atoms: N_2  and  C_3 
    1  A    between atoms: N_2  and  C_10 
    2  A    between atoms: C_3  and  C_5 
    3  A    between atoms: C_6  and  C_7 
    4  A    between atoms: C_7  and  O_8 
    5  A    between atoms: C_7  and  O_9 

>  <TORSDO>
F 5

$$$$
C:\Users\siddh\.mgltools\PyRx\Ligands\ZINC000002213045_uff_E=179.61.pdbqt
 OpenBabel04182118313D

 18 18  0  0  1  0  0  0  0  0999 V2000
    1.4580   -2.3430   -2.5140 C   0  0  1  0  0  3  0  0  0  0  0  0
    0.5740   -1.6670   -1.4710 C   0  0  0  0  0  0  0  0  0  0  0  0
    0.0590   -2.3260   -0.5790 O   0  0  0  0  0  0  0  0  0  0  0  0
    0.3980   -0.3180   -1.5030 O   0  0  0  0  0  0  0  0  0  0  0  0
   -0.3770    0.3390   -0.5650 C   0  0  0  0  0  2  0  0  0  0  0  0
   -0.3630    1.8390   -0.8120 C   0  0  0  0  0  1  0  0  0  0  0  0
    2.8840   -1.7370   -2.3810 C   0  0  0  0  0  2  0  0  0  0  0  0
    3.5680   -2.0620   -1.0720 C   0  0  0  0  0  3  0  0  0  0  0  0
    2.9620   -2.8230   -0.1370 O   0  0  0  0  0  0  0  0  0  0  0  0
    3.4010   -3.0150    0.6680 H   0  0  0  0  0  0  0  0  0  0  0  0
    4.8080   -1.5960   -0.8380 O   0  0  0  0  0  0  0  0  0  0  0  0
    5.2380   -1.0670   -1.4800 H   0  0  0  0  0  0  0  0  0  0  0  0
    1.4420   -3.8290   -2.3430 N   0  0  0  0  0  0  0  0  0  0  0  0
    0.1210   -4.4140   -2.6750 C   0  0  0  0  0  2  0  0  0  0  0  0
    0.1380   -5.9070   -2.3300 C   0  0  0  0  0  2  0  0  0  0  0  0
    1.1250   -6.5790   -3.0870 O   0  0  0  0  0  0  0  0  0  0  0  0
    2.4000   -6.0480   -2.7820 C   0  0  0  0  0  2  0  0  0  0  0  0
    2.4690   -4.5540   -3.1250 C   0  0  0  0  0  2  0  0  0  0  0  0
  1  7  1  1  0  0  0
  1 13  1  0  0  0  0
  1  2  1  0  0  0  0
  2  3  2  0  0  0  0
  4  2  1  0  0  0  0
  4  5  1  0  0  0  0
  6  5  1  0  0  0  0
  7  8  1  0  0  0  0
  8 11  1  0  0  0  0
  8  9  1  0  0  0  0
  9 10  1  0  0  0  0
 12 11  1  0  0  0  0
 14 13  1  0  0  0  0
 14 15  1  0  0  0  0
 16 17  1  0  0  0  0
 16 15  1  0  0  0  0
 18 17  1  0  0  0  0
 18 13  1  0  0  0  0
M  END
>  <REMARK>
  8 active torsions:
  status: ('A' for Active; 'I' for Inactive)
    1  A    between atoms: C_2  and  O_3 
    2  A    between atoms: O_3  and  C_4 
    3  A    between atoms: C_4  and  C_6 
    4  A    between atoms: C_6  and  C_7 
    5  A    between atoms: C_6  and  N_11 
    6  A    between atoms: C_7  and  C_8 
    7  A    between atoms: C_8  and  O_9 
    8  A    between atoms: C_8  and  O_10 

>  <TORSDO>
F 8

$$$$
C:\Users\siddh\.mgltools\PyRx\Ligands\ZINC000002196623_uff_E=729.02.pdbqt
 OpenBabel04182118313D

 15 15  0  0  1  0  0  0  0  0999 V2000
   -0.6950    1.9220    1.4110 O   0  0  0  0  0  0  0  0  0  0  0  0
    0.0430    1.4490   -0.0930 S   0  0  0  0  0  0  0  0  0  0  0  0
    0.1940   -0.2680   -0.1900 O   0  0  0  0  0  0  0  0  0  0  0  0
    0.6060   -0.5090   -1.0340 H   0  0  0  0  0  0  0  0  0  0  0  0
    1.6210    2.1390   -0.1670 O   0  0  0  0  0  0  0  0  0  0  0  0
    2.0470    1.8850   -1.0010 H   0  0  0  0  0  0  0  0  0  0  0  0
   -0.8940    2.0310   -1.4180 O   0  0  0  0  0  0  0  0  0  0  0  0
   -0.4760    1.7630   -2.2520 H   0  0  0  0  0  0  0  0  0  0  0  0
   -1.8320    1.1320    1.6770 C   0  0  1  0  0  3  0  0  0  0  0  0
   -1.9700    0.9810    3.2160 C   0  0  0  0  0  2  0  0  0  0  0  0
   -3.0320    2.3490    3.6690 S   0  0  0  0  0  0  0  0  0  0  0  0
   -3.7550    2.5470    2.0880 C   0  0  0  0  0  2  0  0  0  0  0  0
   -2.2680    3.6030    4.1220 O   0  0  0  0  0  0  0  0  0  0  0  0
   -4.0570    2.0180    4.7630 O   0  0  0  0  0  0  0  0  0  0  0  0
   -3.0660    1.8760    1.1710 C   0  0  0  0  0  2  0  0  0  0  0  0
  2  1  1  0  0  0  0
  3  2  1  0  0  0  0
  4  3  1  0  0  0  0
  5  2  1  0  0  0  0
  6  5  1  0  0  0  0
  7  2  1  0  0  0  0
  8  7  1  0  0  0  0
  9  1  1  1  0  0  0
  9 10  1  0  0  0  0
 10 11  1  0  0  0  0
 11 13  2  0  0  0  0
 11 14  2  0  0  0  0
 12 11  1  0  0  0  0
 15  9  1  0  0  0  0
 15 12  1  0  0  0  0
M  END
>  <REMARK>
  5 active torsions:
  status: ('A' for Active; 'I' for Inactive)
    1  A    between atoms: O_1  and  S_2 
    2  A    between atoms: S_2  and  O_3 
    3  A    between atoms: S_2  and  O_4 
    4  A    between atoms: S_2  and  O_5 
    5  A    between atoms: O_5  and  C_6 

>  <TORSDO>
F 5

$$$$
C:\Users\siddh\.mgltools\PyRx\Ligands\ZINC000002169124_uff_E=961.50.pdbqt
 OpenBabel04182118313D

 18 19  0  0  1  0  0  0  0  0999 V2000
    0.0550    1.5550    0.1450 C   0  0  0  0  0  1  0  0  0  0  0  0
   -0.0220    0.0490    0.0360 C   0  0  1  0  0  3  0  0  0  0  0  0
   -1.2160   -0.6310    0.0030 C   0  0  0  0  0  0  0  0  0  0  0  0
   -1.1570   -2.0540   -0.1000 N   0  0  0  0  0  0  0  0  0  0  0  0
   -1.9370   -2.9910   -0.5560 C   0  0  0  0  0  0  0  0  0  0  0  0
   -3.0650   -2.8950   -1.0150 O   0  0  0  0  0  0  0  0  0  0  0  0
   -0.9560   -4.1040   -0.5080 C   0  0  1  0  0  3  0  0  0  0  0  0
   -0.0470   -2.9200    0.1280 C   0  0  1  0  0  3  0  0  0  0  0  0
    1.3150   -2.3330   -0.8840 S   0  0  0  0  0  0  0  0  0  0  0  0
    1.3200   -0.6850   -0.0620 C   0  0  0  0  0  2  0  0  0  0  0  0
   -2.5550    0.0600    0.0520 C   0  0  0  0  0  0  0  0  0  0  0  0
   -2.6610    1.4020    0.0660 O   0  0  0  0  0  0  0  0  0  0  0  0
   -3.5070    1.8040    0.0970 H   0  0  0  0  0  0  0  0  0  0  0  0
   -3.6860   -0.6640    0.1240 O   0  0  0  0  0  0  0  0  0  0  0  0
   -3.6450   -1.6000    0.1170 H   0  0  0  0  0  0  0  0  0  0  0  0
   -1.3270   -5.1430    0.4400 N   0  0  0  0  0  0  0  0  0  0  0  0
   -2.0550   -5.7440   -0.0100 H   0  0  0  0  0  0  0  0  0  0  0  0
   -0.4830   -5.7420    0.5890 H   0  0  0  0  0  0  0  0  0  0  0  0
  2  1  1  6  0  0  0
  3  2  1  0  0  0  0
  3 11  2  0  0  0  0
  4  3  1  0  0  0  0
  4  8  1  0  0  0  0
  5  7  1  0  0  0  0
  5  4  1  0  0  0  0
  6  5  2  0  0  0  0
  7  8  1  0  0  0  0
  7 16  1  1  0  0  0
  8  9  1  6  0  0  0
  9 10  1  0  0  0  0
 10  2  1  0  0  0  0
 11 12  1  0  0  0  0
 11 14  1  0  0  0  0
 12 13  1  0  0  0  0
 15 14  1  0  0  0  0
 16 18  1  0  0  0  0
 17 16  1  0  0  0  0
M  END
>  <REMARK>
  4 active torsions:
  status: ('A' for Active; 'I' for Inactive)
    1  A    between atoms: C_3  and  C_4 
    2  A    between atoms: C_4  and  O_5 
    3  A    between atoms: C_4  and  O_6 
    4  A    between atoms: C_10  and  N_11 

>  <TORSDO>
F 4

$$$$
C:\Users\siddh\.mgltools\PyRx\Ligands\ZINC000002165066_uff_E=526.99.pdbqt
 OpenBabel04182118313D

 21 21  0  0  0  0  0  0  0  0999 V2000
    0.1240   -0.3340    2.7300 C   0  0  0  0  0  0  0  0  0  0  0  0
    0.6460    0.7620    3.4120 C   0  0  0  0  0  3  0  0  0  0  0  0
    0.0780    1.1720    4.6140 C   0  0  0  0  0  3  0  0  0  0  0  0
   -1.0220    0.4980    5.1600 C   0  0  0  0  0  0  0  0  0  0  0  0
   -1.5480   -0.6520    4.4900 C   0  0  0  0  0  0  0  0  0  0  0  0
   -0.9570   -1.0410    3.2660 C   0  0  0  0  0  3  0  0  0  0  0  0
    0.8370   -0.8160    1.1540 S   0  0  0  0  0  0  0  0  0  0  0  0
    0.7320   -2.3240    0.8820 O   0  0  0  0  0  0  0  0  0  0  0  0
    2.3560   -0.5950    1.0940 O   0  0  0  0  0  0  0  0  0  0  0  0
    0.2030   -0.0380   -0.3050 N   0  0  0  0  0  0  0  0  0  0  0  0
   -0.7140   -0.4900   -0.5250 H   0  0  0  0  0  0  0  0  0  0  0  0
   -0.0420    1.3110   -0.0010 N   0  0  0  0  0  0  0  0  0  0  0  0
    0.8810    1.7960    0.0780 H   0  0  0  0  0  0  0  0  0  0  0  0
   -0.5430    1.7390   -0.8140 H   0  0  0  0  0  0  0  0  0  0  0  0
   -2.6830   -1.4830    5.0090 C   0  0  0  0  0  3  0  0  0  0  0  0
   -3.1320   -2.5270    4.2860 O   0  0  0  0  0  0  0  0  0  0  0  0
   -3.8420   -3.0490    4.6070 H   0  0  0  0  0  0  0  0  0  0  0  0
   -3.2460   -1.2530    6.2090 O   0  0  0  0  0  0  0  0  0  0  0  0
   -2.9540   -0.5340    6.7340 H   0  0  0  0  0  0  0  0  0  0  0  0
   -1.5390    1.0010    6.3040 O   0  0  0  0  0  0  0  0  0  0  0  0
   -2.3740    0.7400    6.7010 H   0  0  0  0  0  0  0  0  0  0  0  0
  1  6  2  0  0  0  0
  1  2  1  0  0  0  0
  2  3  2  0  0  0  0
  3  4  1  0  0  0  0
  4 20  1  0  0  0  0
  5 15  1  0  0  0  0
  5  4  2  0  0  0  0
  6  5  1  0  0  0  0
  7  1  1  0  0  0  0
  8  7  2  0  0  0  0
  9  7  2  0  0  0  0
 10 12  1  0  0  0  0
 10  7  1  0  0  0  0
 11 10  1  0  0  0  0
 12 13  1  0  0  0  0
 14 12  1  0  0  0  0
 15 18  1  0  0  0  0
 16 17  1  0  0  0  0
 16 15  1  0  0  0  0
 18 19  1  0  0  0  0
 20 21  1  0  0  0  0
M  END
>  <REMARK>
  7 active torsions:
  status: ('A' for Active; 'I' for Inactive)
    1  A    between atoms: N_1  and  N_2 
    2  A    between atoms: N_2  and  S_3 
    3  A    between atoms: S_3  and  C_6 
    4  A    between atoms: C_9  and  O_10 
    5  A    between atoms: C_11  and  C_12 
    6  A    between atoms: C_12  and  O_13 
    7  A    between atoms: C_12  and  O_14 

>  <TORSDO>
F 7

$$$$
C:\Users\siddh\.mgltools\PyRx\Ligands\ZINC000002139869_uff_E=297.88.pdbqt
 OpenBabel04182118313D

 20 19  0  0  1  0  0  0  0  0999 V2000
   -0.6700    1.4490    1.2210 C   0  0  1  0  0  3  0  0  0  0  0  0
    0.0100    1.0030   -0.0050 N   0  0  0  0  0  4  0  0  0  0  0  0
    0.0250   -0.0420   -0.0610 H   0  0  0  0  0  0  0  0  0  0  0  0
    0.9910    1.3650   -0.0180 H   0  0  0  0  0  0  0  0  0  0  0  0
   -0.4740    1.3810   -0.8520 H   0  0  0  0  0  0  0  0  0  0  0  0
   -2.1310    0.9590    1.2580 C   0  0  0  0  0  2  0  0  0  0  0  0
   -2.9160    1.5470    0.1190 C   0  0  0  0  0  3  0  0  0  0  0  0
   -3.5600    0.7750   -0.7680 C   0  0  0  0  0  3  0  0  0  0  0  0
   -4.3210    1.3860   -1.9070 C   0  0  0  0  0  2  0  0  0  0  0  0
   -3.6910    0.7060   -3.5150 P   0  0  0  0  0  0  0  0  0  0  0  0
   -2.1690    0.9720   -3.6740 O   0  0  0  0  0  0  0  0  0  0  0  0
   -3.8640   -1.0140   -3.6820 O   0  0  0  0  0  0  0  0  0  0  0  0
   -3.4670   -1.4550   -2.9150 H   0  0  0  0  0  0  0  0  0  0  0  0
   -4.4160    1.4360   -4.9130 O   0  0  0  0  0  0  0  0  0  0  0  0
   -4.0050    0.9730   -5.6860 H   0  0  0  0  0  0  0  0  0  0  0  0
    0.0590    0.9660    2.4540 C   0  0  0  0  0  3  0  0  0  0  0  0
    1.1600    0.1960    2.3500 O   0  0  0  0  0  0  0  0  0  0  0  0
    1.6020   -0.0960    3.1230 H   0  0  0  0  0  0  0  0  0  0  0  0
   -0.3890    1.3160    3.6760 O   0  0  0  0  0  0  0  0  0  0  0  0
   -1.1540    1.8510    3.7590 H   0  0  0  0  0  0  0  0  0  0  0  0
  1  6  1  6  0  0  0
  1 16  1  0  0  0  0
  2  1  1  0  0  0  0
  3  2  1  0  0  0  0
  4  2  1  0  0  0  0
  5  2  1  0  0  0  0
  7  6  1  0  0  0  0
  8  7  2  0  0  0  0
  9  8  1  0  0  0  0
 10  9  1  0  0  0  0
 11 10  2  0  0  0  0
 12 10  1  0  0  0  0
 12 13  1  0  0  0  0
 14 10  1  0  0  0  0
 15 14  1  0  0  0  0
 16 19  1  0  0  0  0
 17 16  1  0  0  0  0
 17 18  1  0  0  0  0
 19 20  1  0  0  0  0
M  END
>  <REMARK>
  10 active torsions:
  status: ('A' for Active; 'I' for Inactive)
    1  A    between atoms: N_1  and  C_5 
    2  A    between atoms: C_5  and  C_6 
    3  A    between atoms: C_5  and  C_14 
    4  A    between atoms: C_6  and  C_7 
    5  A    between atoms: C_8  and  C_9 
    6  A    between atoms: C_9  and  P_10 
    7  A    between atoms: P_10  and  O_12 
    8  A    between atoms: P_10  and  O_13 
    9  A    between atoms: C_14  and  O_15 
   10  A    between atoms: C_14  and  O_16 

>  <TORSDO>
F 10

$$$$
C:\Users\siddh\.mgltools\PyRx\Ligands\ZINC000002116511_uff_E=138.22.pdbqt
 OpenBabel04182118313D

 20 19  0  0  1  0  0  0  0  0999 V2000
    1.9730   -3.7320   -3.1950 C   0  0  0  0  0  0  0  0  0  0  0  0
    1.4360   -4.3790   -4.0820 O   0  0  0  0  0  0  0  0  0  0  0  0
    2.8480   -4.3400   -2.3400 N   0  0  0  0  0  0  0  0  0  0  0  0
    3.2790   -3.7740   -1.5970 H   0  0  0  0  0  0  0  0  0  0  0  0
    1.6750   -2.2420   -3.0550 C   0  0  2  0  0  3  0  0  0  0  0  0
    1.0390   -1.8950   -1.6830 C   0  0  0  0  0  2  0  0  0  0  0  0
    0.8550   -0.3820   -1.4900 C   0  0  0  0  0  2  0  0  0  0  0  0
    0.0370   -0.0720    0.1140 S   0  0  0  0  0  0  0  0  0  0  0  0
    0.0280    1.7440   -0.0400 C   0  0  0  0  0  1  0  0  0  0  0  0
    0.8460   -1.7590   -4.1610 N   0  0  0  0  0  0  0  0  0  0  0  0
    1.2530   -1.0560   -4.7960 H   0  0  0  0  0  0  0  0  0  0  0  0
   -0.4270   -2.1780   -4.4090 C   0  0  0  0  0  3  0  0  0  0  0  0
   -0.9720   -3.0110   -3.7000 O   0  0  0  0  0  0  0  0  0  0  0  0
    3.1600   -5.7670   -2.4410 C   0  0  1  0  0  3  0  0  0  0  0  0
    3.9700   -6.0600   -3.7170 C   0  0  0  0  0  1  0  0  0  0  0  0
    3.9310   -6.2710   -1.2380 C   0  0  0  0  0  3  0  0  0  0  0  0
    4.2930   -5.4420   -0.2390 O   0  0  0  0  0  0  0  0  0  0  0  0
    4.7690   -5.7750    0.4960 H   0  0  0  0  0  0  0  0  0  0  0  0
    4.2380   -7.5800   -1.1490 O   0  0  0  0  0  0  0  0  0  0  0  0
    3.9920   -8.1660   -1.8370 H   0  0  0  0  0  0  0  0  0  0  0  0
  1  5  1  0  0  0  0
  1  3  1  0  0  0  0
  2  1  2  0  0  0  0
  3  4  1  0  0  0  0
  5  6  1  1  0  0  0
  6  7  1  0  0  0  0
  7  8  1  0  0  0  0
  9  8  1  0  0  0  0
 10  5  1  0  0  0  0
 11 10  1  0  0  0  0
 12 10  1  0  0  0  0
 12 13  2  0  0  0  0
 14 15  1  6  0  0  0
 14  3  1  0  0  0  0
 14 16  1  0  0  0  0
 16 19  1  0  0  0  0
 16 17  1  0  0  0  0
 17 18  1  0  0  0  0
 20 19  1  0  0  0  0
M  END
>  <REMARK>
  10 active torsions:
  status: ('A' for Active; 'I' for Inactive)
    1  A    between atoms: S_2  and  C_3 
    2  A    between atoms: C_3  and  C_4 
    3  A    between atoms: C_4  and  C_5 
    4  A    between atoms: C_5  and  N_6 
    5  A    between atoms: C_5  and  C_9 
    6  A    between atoms: N_6  and  C_7 
       I    between atoms: C_9  and  N_11 
    7  A    between atoms: N_11  and  C_12 
    8  A    between atoms: C_12  and  C_14 
    9  A    between atoms: C_14  and  O_15 
   10  A    between atoms: C_14  and  O_16 

>  <TORSDO>
F 10

$$$$
C:\Users\siddh\.mgltools\PyRx\Ligands\ZINC000002115223_uff_E=154.08.pdbqt
 OpenBabel04182118313D

 20 20  0  0  0  0  0  0  0  0999 V2000
    0.1350   -0.1150   -0.0000 O   0  0  0  0  0  0  0  0  0  0  0  0
    0.0510    1.2310    0.0070 C   0  0  0  0  0  3  0  0  0  0  0  0
    0.2940   -1.0380   -0.0130 H   0  0  0  0  0  0  0  0  0  0  0  0
    1.1800    1.9650    0.0000 O   0  0  0  0  0  0  0  0  0  0  0  0
    1.1300    2.9010    0.0050 H   0  0  0  0  0  0  0  0  0  0  0  0
   -1.2830    1.9250    0.0220 C   0  0  0  0  0  2  0  0  0  0  0  0
   -2.4500    0.9330    0.0310 C   0  0  0  0  0  2  0  0  0  0  0  0
   -3.7890    1.6650    0.0500 C   0  0  0  0  0  2  0  0  0  0  0  0
   -4.9480    0.6640    0.0550 C   0  0  0  0  0  2  0  0  0  0  0  0
   -6.2810    1.4080    0.0410 C   0  0  0  0  0  2  0  0  0  0  0  0
   -7.4660    0.4340    0.0040 C   0  0  0  0  0  2  0  0  0  0  0  0
   -8.7560    1.1550    0.0160 N   0  0  0  0  0  0  0  0  0  0  0  0
   -9.8660    0.2240    0.2930 C   0  0  0  0  0  2  0  0  0  0  0  0
  -11.1750    0.9710    0.3190 C   0  0  0  0  0  0  0  0  0  0  0  0
  -11.3300    2.1190   -0.3930 N   0  0  0  0  0  0  0  0  0  0  0  0
  -12.1140    0.5210    0.9580 O   0  0  0  0  0  0  0  0  0  0  0  0
  -10.3270    2.6070   -1.1680 C   0  0  0  0  0  0  0  0  0  0  0  0
  -12.2350    2.6130   -0.3690 H   0  0  0  0  0  0  0  0  0  0  0  0
   -9.0010    1.8990   -1.2360 C   0  0  0  0  0  2  0  0  0  0  0  0
  -10.5090    3.6130   -1.8370 O   0  0  0  0  0  0  0  0  0  0  0  0
  1  2  1  0  0  0  0
  2  6  1  0  0  0  0
  3  1  1  0  0  0  0
  4  5  1  0  0  0  0
  4  2  1  0  0  0  0
  6  7  1  0  0  0  0
  7  8  1  0  0  0  0
  8  9  1  0  0  0  0
 10  9  1  0  0  0  0
 11 12  1  0  0  0  0
 11 10  1  0  0  0  0
 12 13  1  0  0  0  0
 13 14  1  0  0  0  0
 14 16  2  0  0  0  0
 15 18  1  0  0  0  0
 15 14  1  0  0  0  0
 17 15  1  0  0  0  0
 19 17  1  0  0  0  0
 19 12  1  0  0  0  0
 20 17  2  0  0  0  0
M  END
>  <REMARK>
  8 active torsions:
  status: ('A' for Active; 'I' for Inactive)
    1  A    between atoms: C_2  and  O_3 
    2  A    between atoms: C_2  and  C_4 
    3  A    between atoms: C_4  and  C_5 
    4  A    between atoms: C_5  and  C_6 
    5  A    between atoms: C_6  and  C_7 
    6  A    between atoms: C_7  and  C_8 
    7  A    between atoms: C_8  and  C_9 
    8  A    between atoms: C_9  and  N_10 

>  <TORSDO>
F 8

$$$$
C:\Users\siddh\.mgltools\PyRx\Ligands\ZINC000002097573_uff_E=265.54.pdbqt
 OpenBabel04182118313D

 22 22  0  0  0  0  0  0  0  0999 V2000
    0.0090    0.0230    0.0420 O   0  0  0  0  0  0  0  0  0  0  0  0
    0.0100    1.2460    0.0400 C   0  0  0  0  0  0  0  0  0  0  0  0
    1.2010    1.9130    0.0260 N   0  0  0  0  0  0  0  0  0  0  0  0
    1.2260    2.9380    0.0190 H   0  0  0  0  0  0  0  0  0  0  0  0
   -1.3050    1.9700    0.0270 C   0  0  0  0  0  0  0  0  0  0  0  0
   -2.4950    1.2210   -0.0380 C   0  0  0  0  0  3  0  0  0  0  0  0
   -3.7310    1.8610   -0.0980 C   0  0  0  0  0  0  0  0  0  0  0  0
   -3.7820    3.2570   -0.0650 C   0  0  0  0  0  2  0  0  0  0  0  0
   -2.6330    3.9760    0.0130 N   0  0  0  0  0  0  0  0  0  0  0  0
   -1.4120    3.3790    0.0520 C   0  0  0  0  0  3  0  0  0  0  0  0
   -2.6870    4.9940    0.0420 H   0  0  0  0  0  0  0  0  0  0  0  0
   -4.8580    1.1280   -0.2040 O   0  0  0  0  0  0  0  0  0  0  0  0
   -5.7240    1.5420   -0.3210 H   0  0  0  0  0  0  0  0  0  0  0  0
    2.4630    1.1950    0.0020 C   0  0  0  0  0  2  0  0  0  0  0  0
    3.6340    2.1760   -0.0170 C   0  0  0  0  0  2  0  0  0  0  0  0
    5.2360    1.2810   -0.0410 S   0  0  0  0  0  0  0  0  0  0  0  0
    6.5070    2.4470   -0.0480 O   0  0  0  0  0  0  0  0  0  0  0  0
    6.4560    2.9870    0.7560 H   0  0  0  0  0  0  0  0  0  0  0  0
    5.3400    0.2920    1.3680 O   0  0  0  0  0  0  0  0  0  0  0  0
    5.2980    0.8510    2.1600 H   0  0  0  0  0  0  0  0  0  0  0  0
    5.3090    0.3080   -1.4650 O   0  0  0  0  0  0  0  0  0  0  0  0
    5.2490    0.8770   -2.2490 H   0  0  0  0  0  0  0  0  0  0  0  0
  2  1  2  0  0  0  0
  3  2  1  0  0  0  0
  4  3  1  0  0  0  0
  5  2  1  0  0  0  0
  5 10  2  0  0  0  0
  6  5  1  0  0  0  0
  7  8  1  0  0  0  0
  7  6  2  0  0  0  0
  8  9  1  0  0  0  0
  9 11  1  0  0  0  0
  9 10  1  0  0  0  0
 12  7  1  0  0  0  0
 13 12  1  0  0  0  0
 14  3  1  0  0  0  0
 15 14  1  0  0  0  0
 16 15  1  0  0  0  0
 16 19  1  0  0  0  0
 17 16  1  0  0  0  0
 17 18  1  0  0  0  0
 19 20  1  0  0  0  0
 21 16  1  0  0  0  0
 22 21  1  0  0  0  0
M  END
>  <REMARK>
  8 active torsions:
  status: ('A' for Active; 'I' for Inactive)
       I    between atoms: C_2  and  N_3 
    1  A    between atoms: C_2  and  C_10 
    2  A    between atoms: N_3  and  C_4 
    3  A    between atoms: C_4  and  C_5 
    4  A    between atoms: C_5  and  S_6 
    5  A    between atoms: S_6  and  O_7 
    6  A    between atoms: S_6  and  O_8 
    7  A    between atoms: S_6  and  O_9 
    8  A    between atoms: C_15  and  O_16 

>  <TORSDO>
F 8

$$$$
C:\Users\siddh\.mgltools\PyRx\Ligands\ZINC000002040273_uff_E=117.68.pdbqt
 OpenBabel04182118313D

 20 19  0  0  1  0  0  0  0  0999 V2000
    1.6630   -2.5510   -2.4380 C   0  0  0  0  0  0  0  0  0  0  0  0
    2.6480   -3.2530   -2.2640 O   0  0  0  0  0  0  0  0  0  0  0  0
    1.2830   -2.2020   -3.6990 N   0  0  0  0  0  0  0  0  0  0  0  0
    0.4390   -1.6270   -3.8360 H   0  0  0  0  0  0  0  0  0  0  0  0
    0.8420   -2.1000   -1.2520 C   0  0  2  0  0  3  0  0  0  0  0  0
    0.8030   -0.5520   -1.1320 C   0  0  0  0  0  2  0  0  0  0  0  0
   -0.1480    0.0040   -0.0340 C   0  0  0  0  0  0  0  0  0  0  0  0
   -1.6060   -0.4630   -0.2600 C   0  0  0  0  0  1  0  0  0  0  0  0
   -0.1320    1.5410   -0.0950 C   0  0  0  0  0  1  0  0  0  0  0  0
    0.3050   -0.3660    1.2480 O   0  0  0  0  0  0  0  0  0  0  0  0
    0.0390   -1.3040    1.4250 H   0  0  0  0  0  0  0  0  0  0  0  0
    1.3160   -2.6960   -0.0690 O   0  0  0  0  0  0  0  0  0  0  0  0
    2.2170   -2.3230    0.1190 H   0  0  0  0  0  0  0  0  0  0  0  0
    2.0380   -2.6500   -4.8510 C   0  0  0  0  0  2  0  0  0  0  0  0
    1.4150   -2.1490   -6.1570 C   0  0  0  0  0  2  0  0  0  0  0  0
    2.1930   -2.6100   -7.3600 C   0  0  0  0  0  3  0  0  0  0  0  0
    3.2970   -3.3730   -7.2220 O   0  0  0  0  0  0  0  0  0  0  0  0
    3.7710   -3.6520   -7.9800 H   0  0  0  0  0  0  0  0  0  0  0  0
    1.7840   -2.2560   -8.5920 O   0  0  0  0  0  0  0  0  0  0  0  0
    1.0180   -1.7260   -8.6960 H   0  0  0  0  0  0  0  0  0  0  0  0
  1  2  2  0  0  0  0
  1  5  1  0  0  0  0
  3  1  1  0  0  0  0
  4  3  1  0  0  0  0
  5  6  1  1  0  0  0
  5 12  1  0  0  0  0
  6  7  1  0  0  0  0
  7 10  1  0  0  0  0
  8  7  1  0  0  0  0
  9  7  1  0  0  0  0
 10 11  1  0  0  0  0
 12 13  1  0  0  0  0
 14  3  1  0  0  0  0
 15 14  1  0  0  0  0
 16 17  1  0  0  0  0
 16 15  1  0  0  0  0
 18 17  1  0  0  0  0
 19 16  1  0  0  0  0
 20 19  1  0  0  0  0
M  END
>  <REMARK>
  10 active torsions:
  status: ('A' for Active; 'I' for Inactive)
    1  A    between atoms: C_2  and  O_4 
    2  A    between atoms: C_2  and  C_5 
    3  A    between atoms: C_5  and  C_6 
    4  A    between atoms: C_6  and  O_7 
    5  A    between atoms: C_6  and  C_8 
       I    between atoms: C_8  and  N_10 
    6  A    between atoms: N_10  and  C_11 
    7  A    between atoms: C_11  and  C_12 
    8  A    between atoms: C_12  and  C_13 
    9  A    between atoms: C_13  and  O_14 
   10  A    between atoms: C_13  and  O_15 

>  <TORSDO>
F 10

$$$$
C:\Users\siddh\.mgltools\PyRx\Ligands\ZINC000002012927_uff_E=964.30.pdbqt
 OpenBabel04182118313D

 18 19  0  0  1  0  0  0  0  0999 V2000
    0.0560    1.5910   -0.1320 C   0  0  0  0  0  1  0  0  0  0  0  0
   -0.0170    0.0840   -0.0460 C   0  0  2  0  0  3  0  0  0  0  0  0
   -1.2090   -0.5950    0.0020 C   0  0  0  0  0  0  0  0  0  0  0  0
   -1.1530   -2.0190    0.0830 N   0  0  0  0  0  0  0  0  0  0  0  0
   -1.9320   -2.9550    0.5410 C   0  0  0  0  0  0  0  0  0  0  0  0
   -3.0470   -2.8550    1.0310 O   0  0  0  0  0  0  0  0  0  0  0  0
   -0.9680   -4.0780    0.4560 C   0  0  1  0  0  3  0  0  0  0  0  0
   -0.0530   -2.8890   -0.1740 C   0  0  2  0  0  3  0  0  0  0  0  0
    1.3490   -2.3090    0.7970 S   0  0  0  0  0  0  0  0  0  0  0  0
    1.3290   -0.6480    0.0100 C   0  0  0  0  0  2  0  0  0  0  0  0
   -2.5500    0.0960   -0.0110 C   0  0  0  0  0  0  0  0  0  0  0  0
   -2.6570    1.4370   -0.0010 O   0  0  0  0  0  0  0  0  0  0  0  0
   -3.5030    1.8400   -0.0100 H   0  0  0  0  0  0  0  0  0  0  0  0
   -3.6820   -0.6260   -0.0780 O   0  0  0  0  0  0  0  0  0  0  0  0
   -3.6410   -1.5620   -0.0870 H   0  0  0  0  0  0  0  0  0  0  0  0
   -0.5630   -4.4780    1.8000 N   0  0  0  0  0  0  0  0  0  0  0  0
   -1.3170   -5.0660    2.2220 H   0  0  0  0  0  0  0  0  0  0  0  0
    0.3120   -5.0450    1.7360 H   0  0  0  0  0  0  0  0  0  0  0  0
  2  1  1  1  0  0  0
  2  3  1  0  0  0  0
  2 10  1  0  0  0  0
  3  4  1  0  0  0  0
  4  5  1  0  0  0  0
  5  6  2  0  0  0  0
  7  5  1  0  0  0  0
  7 16  1  1  0  0  0
  8  4  1  0  0  0  0
  8  7  1  0  0  0  0
  8  9  1  1  0  0  0
 10  9  1  0  0  0  0
 11 12  1  0  0  0  0
 11  3  2  0  0  0  0
 13 12  1  0  0  0  0
 14 11  1  0  0  0  0
 15 14  1  0  0  0  0
 16 17  1  0  0  0  0
 18 16  1  0  0  0  0
M  END
>  <REMARK>
  4 active torsions:
  status: ('A' for Active; 'I' for Inactive)
    1  A    between atoms: C_3  and  C_4 
    2  A    between atoms: C_4  and  O_5 
    3  A    between atoms: C_4  and  O_6 
    4  A    between atoms: C_10  and  N_11 

>  <TORSDO>
F 4

$$$$
C:\Users\siddh\.mgltools\PyRx\Ligands\ZINC000002003379_uff_E=959.90.pdbqt
 OpenBabel04182118313D

 18 19  0  0  1  0  0  0  0  0999 V2000
    0.0400   -0.0110    0.0550 C   0  0  2  0  0  3  0  0  0  0  0  0
    0.0760   -0.5010   -1.3480 C   0  0  0  0  0  0  0  0  0  0  0  0
    0.9250   -0.4610   -2.2220 O   0  0  0  0  0  0  0  0  0  0  0  0
   -1.1710   -0.8690   -1.4310 N   0  0  0  0  0  0  0  0  0  0  0  0
   -2.0370   -1.3170   -2.4710 C   0  0  0  0  0  0  0  0  0  0  0  0
   -3.3800   -1.1270   -2.2970 C   0  0  2  0  0  3  0  0  0  0  0  0
   -4.5820   -1.6840   -3.4670 Cl  0  0  0  0  0  0  0  0  0  0  0  0
   -3.9590   -0.3920   -1.0900 C   0  0  0  0  0  2  0  0  0  0  0  0
   -2.8270    0.6540   -0.0810 S   0  0  0  0  0  0  0  0  0  0  0  0
   -1.4900   -0.5540   -0.0790 C   0  0  2  0  0  3  0  0  0  0  0  0
   -1.4600   -1.9710   -3.6960 C   0  0  0  0  0  0  0  0  0  0  0  0
   -2.2330   -2.3210   -4.7400 O   0  0  0  0  0  0  0  0  0  0  0  0
   -1.8480   -2.7270   -5.4920 H   0  0  0  0  0  0  0  0  0  0  0  0
   -0.1440   -2.2420   -3.7630 O   0  0  0  0  0  0  0  0  0  0  0  0
    0.4190   -2.0100   -3.0510 H   0  0  0  0  0  0  0  0  0  0  0  0
    0.1650    1.4480    0.1070 N   0  0  0  0  0  0  0  0  0  0  0  0
    1.1670    1.7050   -0.0430 H   0  0  0  0  0  0  0  0  0  0  0  0
   -0.3920    1.9020   -0.6560 H   0  0  0  0  0  0  0  0  0  0  0  0
  1 16  1  6  0  0  0
  2  1  1  0  0  0  0
  3  2  2  0  0  0  0
  4  2  1  0  0  0  0
  4 10  1  0  0  0  0
  5  6  1  0  0  0  0
  5  4  1  0  0  0  0
  6  7  1  6  0  0  0
  6  8  1  0  0  0  0
  8  9  1  0  0  0  0
 10  9  1  6  0  0  0
 10  1  1  0  0  0  0
 11  5  2  0  0  0  0
 12 11  1  0  0  0  0
 13 12  1  0  0  0  0
 14 11  1  0  0  0  0
 14 15  1  0  0  0  0
 17 16  1  0  0  0  0
 18 16  1  0  0  0  0
M  END
>  <REMARK>
  4 active torsions:
  status: ('A' for Active; 'I' for Inactive)
    1  A    between atoms: N_1  and  C_2 
    2  A    between atoms: C_6  and  C_7 
    3  A    between atoms: C_7  and  O_8 
    4  A    between atoms: C_7  and  O_9 

>  <TORSDO>
F 4

$$$$
C:\Users\siddh\.mgltools\PyRx\Ligands\ZINC000002003376_uff_E=949.79.pdbqt
 OpenBabel04182118313D

 18 19  0  0  1  0  0  0  0  0999 V2000
    0.0250    0.0570   -0.0450 C   0  0  1  0  0  3  0  0  0  0  0  0
    0.2060   -0.6950    1.2250 C   0  0  0  0  0  0  0  0  0  0  0  0
    1.1270   -0.7850    2.0180 O   0  0  0  0  0  0  0  0  0  0  0  0
   -0.9010   -1.3800    1.1730 N   0  0  0  0  0  0  0  0  0  0  0  0
   -1.4780   -2.4640    1.8980 C   0  0  0  0  0  0  0  0  0  0  0  0
   -2.4020   -3.2330    1.2440 C   0  0  2  0  0  3  0  0  0  0  0  0
   -3.2590   -4.5700    2.0240 Cl  0  0  0  0  0  0  0  0  0  0  0  0
   -2.7530   -3.0190   -0.2270 C   0  0  0  0  0  2  0  0  0  0  0  0
   -1.5740   -2.0460   -1.2590 S   0  0  0  0  0  0  0  0  0  0  0  0
   -1.3750   -0.7620   -0.0190 C   0  0  2  0  0  3  0  0  0  0  0  0
   -1.0640   -2.7240    3.3190 C   0  0  0  0  0  0  0  0  0  0  0  0
   -1.5130   -3.7940    4.0020 O   0  0  0  0  0  0  0  0  0  0  0  0
   -1.2400   -3.9330    4.8870 H   0  0  0  0  0  0  0  0  0  0  0  0
   -0.2380   -1.8700    3.9500 O   0  0  0  0  0  0  0  0  0  0  0  0
    0.0900   -1.1170    3.5000 H   0  0  0  0  0  0  0  0  0  0  0  0
   -0.1250    1.4890    0.1620 N   0  0  0  0  0  0  0  0  0  0  0  0
    0.8310    1.8990    0.2690 H   0  0  0  0  0  0  0  0  0  0  0  0
   -0.5340    1.8890   -0.7140 H   0  0  0  0  0  0  0  0  0  0  0  0
  1 10  1  0  0  0  0
  1 16  1  1  0  0  0
  1  2  1  0  0  0  0
  2  3  2  0  0  0  0
  4  2  1  0  0  0  0
  4  5  1  0  0  0  0
  5 11  2  0  0  0  0
  6  5  1  0  0  0  0
  6  7  1  6  0  0  0
  8  6  1  0  0  0  0
  9  8  1  0  0  0  0
 10  9  1  6  0  0  0
 10  4  1  0  0  0  0
 11 14  1  0  0  0  0
 11 12  1  0  0  0  0
 12 13  1  0  0  0  0
 15 14  1  0  0  0  0
 16 17  1  0  0  0  0
 18 16  1  0  0  0  0
M  END
>  <REMARK>
  4 active torsions:
  status: ('A' for Active; 'I' for Inactive)
    1  A    between atoms: N_1  and  C_2 
    2  A    between atoms: C_6  and  C_7 
    3  A    between atoms: C_7  and  O_8 
    4  A    between atoms: C_7  and  O_9 

>  <TORSDO>
F 4

$$$$
C:\Users\siddh\.mgltools\PyRx\Ligands\ZINC000002003375_uff_E=952.37.pdbqt
 OpenBabel04182118313D

 18 19  0  0  1  0  0  0  0  0999 V2000
    0.0230   -0.0000   -0.0520 C   0  0  1  0  0  3  0  0  0  0  0  0
    0.0960   -0.5090    1.3410 C   0  0  0  0  0  0  0  0  0  0  0  0
    0.9660   -0.4770    2.1940 O   0  0  0  0  0  0  0  0  0  0  0  0
   -1.1470   -0.8820    1.4510 N   0  0  0  0  0  0  0  0  0  0  0  0
   -1.9890   -1.3450    2.5040 C   0  0  0  0  0  0  0  0  0  0  0  0
   -3.3360   -1.1550    2.3610 C   0  0  1  0  0  3  0  0  0  0  0  0
   -4.5130   -1.7340    3.5460 Cl  0  0  0  0  0  0  0  0  0  0  0  0
   -3.9400   -0.4030    1.1770 C   0  0  0  0  0  2  0  0  0  0  0  0
   -2.8270    0.6690    0.1740 S   0  0  0  0  0  0  0  0  0  0  0  0
   -1.5000   -0.5480    0.1140 C   0  0  1  0  0  3  0  0  0  0  0  0
   -1.3850   -2.0130    3.7070 C   0  0  0  0  0  0  0  0  0  0  0  0
   -2.1350   -2.3780    4.7640 O   0  0  0  0  0  0  0  0  0  0  0  0
   -1.7330   -2.7930    5.5020 H   0  0  0  0  0  0  0  0  0  0  0  0
   -0.0670   -2.2820    3.7420 O   0  0  0  0  0  0  0  0  0  0  0  0
    0.4800   -2.0400    3.0210 H   0  0  0  0  0  0  0  0  0  0  0  0
    0.1240    1.4550   -0.0520 N   0  0  0  0  0  0  0  0  0  0  0  0
    1.1310    1.7260    0.0180 H   0  0  0  0  0  0  0  0  0  0  0  0
   -0.2600    1.8210   -0.9520 H   0  0  0  0  0  0  0  0  0  0  0  0
  1 16  1  1  0  0  0
  1 10  1  0  0  0  0
  1  2  1  0  0  0  0
  2  4  1  0  0  0  0
  2  3  2  0  0  0  0
  4  5  1  0  0  0  0
  5 11  2  0  0  0  0
  6  5  1  0  0  0  0
  6  7  1  1  0  0  0
  8  6  1  0  0  0  0
  9  8  1  0  0  0  0
 10  9  1  1  0  0  0
 10  4  1  0  0  0  0
 11 14  1  0  0  0  0
 11 12  1  0  0  0  0
 12 13  1  0  0  0  0
 15 14  1  0  0  0  0
 16 17  1  0  0  0  0
 18 16  1  0  0  0  0
M  END
>  <REMARK>
  4 active torsions:
  status: ('A' for Active; 'I' for Inactive)
    1  A    between atoms: N_1  and  C_2 
    2  A    between atoms: C_6  and  C_7 
    3  A    between atoms: C_7  and  O_8 
    4  A    between atoms: C_7  and  O_9 

>  <TORSDO>
F 4

$$$$
C:\Users\siddh\.mgltools\PyRx\Ligands\ZINC000001926623_uff_E=217.12.pdbqt
 OpenBabel04182118313D

 22 23  0  0  1  0  0  0  0  0999 V2000
   -2.6200    1.0120    0.1290 C   0  0  1  0  0  3  0  0  0  0  0  0
   -3.9370    1.7730    0.2470 C   0  0  0  0  0  0  0  0  0  0  0  0
   -4.0550    2.6320    1.1110 O   0  0  0  0  0  0  0  0  0  0  0  0
   -4.9830    1.5230   -0.5850 N   0  0  0  0  0  0  0  0  0  0  0  0
   -4.9650    0.4460   -1.5550 C   0  0  0  0  0  2  0  0  0  0  0  0
   -3.8690   -0.5690   -1.2470 C   0  0  0  0  0  2  0  0  0  0  0  0
   -2.5870    0.1240   -1.0740 N   0  0  0  0  0  0  0  0  0  0  0  0
   -5.8240    2.1150   -0.5280 H   0  0  0  0  0  0  0  0  0  0  0  0
   -1.4400   -0.8230   -1.0920 C   0  0  0  0  0  2  0  0  0  0  0  0
   -1.4410   -1.7640    0.0910 C   0  0  0  0  0  0  0  0  0  0  0  0
   -2.2090   -2.9370    0.0690 C   0  0  0  0  0  2  0  0  0  0  0  0
   -2.2590   -3.7420    1.1640 N   0  0  0  0  0  0  0  0  0  0  0  0
   -1.5780   -3.4400    2.3010 C   0  0  0  0  0  3  0  0  0  0  0  0
   -2.8220   -4.5920    1.1310 H   0  0  0  0  0  0  0  0  0  0  0  0
   -0.7880   -2.2900    2.3600 C   0  0  0  0  0  3  0  0  0  0  0  0
   -0.7120   -1.4540    1.2490 C   0  0  0  0  0  3  0  0  0  0  0  0
   -1.4330    2.0110    0.1110 C   0  0  0  0  0  2  0  0  0  0  0  0
   -1.3940    2.9070   -1.0990 C   0  0  0  0  0  3  0  0  0  0  0  0
   -2.3190    2.8060   -2.0740 O   0  0  0  0  0  0  0  0  0  0  0  0
   -2.6830    3.5790   -2.4580 H   0  0  0  0  0  0  0  0  0  0  0  0
   -0.4130    3.8220   -1.2110 O   0  0  0  0  0  0  0  0  0  0  0  0
    0.2340    3.9000   -0.5380 H   0  0  0  0  0  0  0  0  0  0  0  0
  1 17  1  6  0  0  0
  1  2  1  0  0  0  0
  2  3  2  0  0  0  0
  4  8  1  0  0  0  0
  4  2  1  0  0  0  0
  5  6  1  0  0  0  0
  5  4  1  0  0  0  0
  6  7  1  0  0  0  0
  7  1  1  0  0  0  0
  9  7  1  0  0  0  0
  9 10  1  0  0  0  0
 10 16  2  0  0  0  0
 11 10  1  0  0  0  0
 11 12  1  0  0  0  0
 12 13  1  0  0  0  0
 13 15  2  0  0  0  0
 14 12  1  0  0  0  0
 16 15  1  0  0  0  0
 18 17  1  0  0  0  0
 19 18  1  0  0  0  0
 20 19  1  0  0  0  0
 21 18  1  0  0  0  0
 21 22  1  0  0  0  0
M  END
>  <REMARK>
  6 active torsions:
  status: ('A' for Active; 'I' for Inactive)
    1  A    between atoms: O_1  and  C_2 
    2  A    between atoms: C_2  and  O_3 
    3  A    between atoms: C_2  and  C_4 
    4  A    between atoms: C_4  and  C_5 
    5  A    between atoms: N_11  and  C_12 
    6  A    between atoms: C_12  and  C_13 

>  <TORSDO>
F 6

$$$$
C:\Users\siddh\.mgltools\PyRx\Ligands\ZINC000001926621_uff_E=196.26.pdbqt
 OpenBabel04182118313D

 22 23  0  0  1  0  0  0  0  0999 V2000
   -2.2280    1.1540    0.2850 C   0  0  2  0  0  3  0  0  0  0  0  0
   -3.5930    1.7630   -0.0520 C   0  0  0  0  0  0  0  0  0  0  0  0
   -3.6560    2.6770   -0.8640 O   0  0  0  0  0  0  0  0  0  0  0  0
   -4.7380    1.3250    0.5380 N   0  0  0  0  0  0  0  0  0  0  0  0
   -4.7630    0.1810    1.4230 C   0  0  0  0  0  2  0  0  0  0  0  0
   -3.5150   -0.6730    1.2520 C   0  0  0  0  0  2  0  0  0  0  0  0
   -2.3080    0.1590    1.3930 N   0  0  0  0  0  0  0  0  0  0  0  0
   -5.6240    1.8170    0.3520 H   0  0  0  0  0  0  0  0  0  0  0  0
   -1.1210   -0.7260    1.4650 C   0  0  0  0  0  2  0  0  0  0  0  0
   -0.9900   -1.2910    2.8570 C   0  0  0  0  0  0  0  0  0  0  0  0
   -1.2860   -2.6370    3.1170 C   0  0  0  0  0  2  0  0  0  0  0  0
   -1.1820   -3.1300    4.3810 N   0  0  0  0  0  0  0  0  0  0  0  0
   -0.7790   -2.3490    5.4190 C   0  0  0  0  0  3  0  0  0  0  0  0
   -1.4130   -4.1080    4.5540 H   0  0  0  0  0  0  0  0  0  0  0  0
   -0.4620   -1.0070    5.2040 C   0  0  0  0  0  3  0  0  0  0  0  0
   -0.5760   -0.4730    3.9190 C   0  0  0  0  0  3  0  0  0  0  0  0
   -1.2400    2.2950    0.6550 C   0  0  0  0  0  2  0  0  0  0  0  0
   -1.5790    3.0370    1.9250 C   0  0  0  0  0  3  0  0  0  0  0  0
   -2.6500    2.6980    2.6690 O   0  0  0  0  0  0  0  0  0  0  0  0
   -3.1980    3.3570    3.0490 H   0  0  0  0  0  0  0  0  0  0  0  0
   -0.7900    4.0500    2.3270 O   0  0  0  0  0  0  0  0  0  0  0  0
   -0.0420    4.2930    1.8160 H   0  0  0  0  0  0  0  0  0  0  0  0
  1 17  1  1  0  0  0
  1  7  1  0  0  0  0
  2  1  1  0  0  0  0
  2  4  1  0  0  0  0
  3  2  2  0  0  0  0
  4  5  1  0  0  0  0
  6  7  1  0  0  0  0
  6  5  1  0  0  0  0
  7  9  1  0  0  0  0
  8  4  1  0  0  0  0
  9 10  1  0  0  0  0
 10 11  1  0  0  0  0
 10 16  2  0  0  0  0
 11 12  1  0  0  0  0
 12 14  1  0  0  0  0
 12 13  1  0  0  0  0
 15 13  2  0  0  0  0
 16 15  1  0  0  0  0
 17 18  1  0  0  0  0
 18 21  1  0  0  0  0
 18 19  1  0  0  0  0
 19 20  1  0  0  0  0
 22 21  1  0  0  0  0
M  END
>  <REMARK>
  6 active torsions:
  status: ('A' for Active; 'I' for Inactive)
    1  A    between atoms: O_1  and  C_2 
    2  A    between atoms: C_2  and  O_3 
    3  A    between atoms: C_2  and  C_4 
    4  A    between atoms: C_4  and  C_5 
    5  A    between atoms: N_11  and  C_12 
    6  A    between atoms: C_12  and  C_13 

>  <TORSDO>
F 6

$$$$
C:\Users\siddh\.mgltools\PyRx\Ligands\ZINC000001873108_uff_E=97.13.pdbqt
 OpenBabel04182118313D

 21 20  0  0  1  0  0  0  0  0999 V2000
    4.0790   -0.0730   -2.6920 C   0  0  2  0  0  3  0  0  0  0  0  0
    2.6810   -0.3700   -2.4050 N   0  0  0  0  0  0  0  0  0  0  0  0
    2.1200   -0.0690   -1.2050 C   0  0  0  0  0  0  0  0  0  0  0  0
    2.7880    0.4790   -0.3390 O   0  0  0  0  0  0  0  0  0  0  0  0
    2.0840   -0.7780   -3.1410 H   0  0  0  0  0  0  0  0  0  0  0  0
    0.8020   -0.3540   -0.9930 O   0  0  0  0  0  0  0  0  0  0  0  0
    0.0300    0.0320    0.1000 C   0  0  0  0  0  0  0  0  0  0  0  0
   -0.0910    1.5690    0.1480 C   0  0  0  0  0  1  0  0  0  0  0  0
    0.6170   -0.5120    1.4210 C   0  0  0  0  0  1  0  0  0  0  0  0
   -1.3750   -0.5640   -0.0830 C   0  0  0  0  0  1  0  0  0  0  0  0
    4.3590   -0.1330   -4.2060 C   0  0  0  0  0  2  0  0  0  0  0  0
    3.5760    0.9080   -4.9840 C   0  0  0  0  0  0  0  0  0  0  0  0
    3.7520    1.0290   -6.3180 N   0  0  0  0  0  0  0  0  0  0  0  0
    4.4160    0.4200   -6.8160 H   0  0  0  0  0  0  0  0  0  0  0  0
    3.2280    1.7420   -6.8480 H   0  0  0  0  0  0  0  0  0  0  0  0
    2.7910    1.6530   -4.4120 O   0  0  0  0  0  0  0  0  0  0  0  0
    4.9690   -1.0320   -1.9450 C   0  0  0  0  0  3  0  0  0  0  0  0
    4.8720   -2.3580   -2.1630 O   0  0  0  0  0  0  0  0  0  0  0  0
    5.4270   -2.9510   -1.6960 H   0  0  0  0  0  0  0  0  0  0  0  0
    5.8650   -0.5670   -1.0530 O   0  0  0  0  0  0  0  0  0  0  0  0
    5.9360    0.3550   -0.8980 H   0  0  0  0  0  0  0  0  0  0  0  0
  1 11  1  6  0  0  0
  1  2  1  0  0  0  0
  1 17  1  0  0  0  0
  2  3  1  0  0  0  0
  3  6  1  0  0  0  0
  3  4  2  0  0  0  0
  5  2  1  0  0  0  0
  6  7  1  0  0  0  0
  7  8  1  0  0  0  0
  7  9  1  0  0  0  0
 10  7  1  0  0  0  0
 12 16  2  0  0  0  0
 12 11  1  0  0  0  0
 13 12  1  0  0  0  0
 14 13  1  0  0  0  0
 15 13  1  0  0  0  0
 17 20  1  0  0  0  0
 18 17  1  0  0  0  0
 18 19  1  0  0  0  0
 20 21  1  0  0  0  0
M  END
>  <REMARK>
  8 active torsions:
  status: ('A' for Active; 'I' for Inactive)
    1  A    between atoms: C_2  and  O_5 
    2  A    between atoms: O_5  and  C_6 
       I    between atoms: C_6  and  N_8 
    3  A    between atoms: N_8  and  C_9 
    4  A    between atoms: C_9  and  C_10 
    5  A    between atoms: C_9  and  C_14 
    6  A    between atoms: C_10  and  C_11 
       I    between atoms: C_11  and  N_12 
    7  A    between atoms: C_14  and  O_15 
    8  A    between atoms: C_14  and  O_16 

>  <TORSDO>
F 8

$$$$
C:\Users\siddh\.mgltools\PyRx\Ligands\ZINC000001868173_uff_E=277.47.pdbqt
 OpenBabel04182118313D

 20 20  0  0  0  0  0  0  0  0999 V2000
    0.1260   -0.1290    0.0000 O   0  0  0  0  0  0  0  0  0  0  0  0
    0.0390    1.2160    0.0070 C   0  0  0  0  0  3  0  0  0  0  0  0
    0.2890   -1.0520   -0.0130 H   0  0  0  0  0  0  0  0  0  0  0  0
    1.1670    1.9500    0.0040 O   0  0  0  0  0  0  0  0  0  0  0  0
    1.1170    2.8850    0.0090 H   0  0  0  0  0  0  0  0  0  0  0  0
   -1.2920    1.9150    0.0180 C   0  0  0  0  0  2  0  0  0  0  0  0
   -2.4160    0.9940    0.0190 N   0  0  0  0  0  0  0  0  0  0  0  0
   -3.6910    1.4570    0.0270 C   0  0  0  0  0  0  0  0  0  0  0  0
   -3.9040    2.6630    0.0350 O   0  0  0  0  0  0  0  0  0  0  0  0
   -2.2610   -0.0250    0.0130 H   0  0  0  0  0  0  0  0  0  0  0  0
   -4.8380    0.4740    0.0280 C   0  0  0  0  0  2  0  0  0  0  0  0
   -6.1310    1.1360    0.0370 N   0  0  0  0  0  0  0  0  0  0  0  0
   -7.2910    0.4290    0.0400 C   0  0  0  0  0  0  0  0  0  0  0  0
   -7.2690   -0.7940    0.0350 O   0  0  0  0  0  0  0  0  0  0  0  0
   -6.1800    2.1640    0.0430 H   0  0  0  0  0  0  0  0  0  0  0  0
   -8.5870    1.1330    0.0500 C   0  0  0  0  0  0  0  0  0  0  0  0
   -8.8280    2.7770    0.0560 S   0  0  0  0  0  0  0  0  0  0  0  0
  -10.4830    2.8120    0.0660 C   0  0  0  0  0  3  0  0  0  0  0  0
  -10.9120    1.4810    0.0660 C   0  0  0  0  0  3  0  0  0  0  0  0
   -9.8480    0.5370    0.0570 C   0  0  0  0  0  3  0  0  0  0  0  0
  1  2  1  0  0  0  0
  2  6  1  0  0  0  0
  3  1  1  0  0  0  0
  4  2  1  0  0  0  0
  4  5  1  0  0  0  0
  6  7  1  0  0  0  0
  7  8  1  0  0  0  0
  8 11  1  0  0  0  0
  8  9  2  0  0  0  0
 10  7  1  0  0  0  0
 11 12  1  0  0  0  0
 12 13  1  0  0  0  0
 12 15  1  0  0  0  0
 13 16  1  0  0  0  0
 14 13  2  0  0  0  0
 16 17  1  0  0  0  0
 16 20  2  0  0  0  0
 17 18  1  0  0  0  0
 18 19  2  0  0  0  0
 20 19  1  0  0  0  0
M  END
>  <REMARK>
  6 active torsions:
  status: ('A' for Active; 'I' for Inactive)
    1  A    between atoms: C_2  and  O_3 
    2  A    between atoms: C_2  and  C_4 
    3  A    between atoms: C_4  and  N_5 
       I    between atoms: N_5  and  C_6 
    4  A    between atoms: C_6  and  C_8 
    5  A    between atoms: C_8  and  N_9 
       I    between atoms: N_9  and  C_10 
    6  A    between atoms: C_10  and  C_12 

>  <TORSDO>
F 6

$$$$
C:\Users\siddh\.mgltools\PyRx\Ligands\ZINC000001823473_uff_E=225.09.pdbqt
 OpenBabel04182118313D

 15 14  0  0  0  0  0  0  0  0999 V2000
    1.7370   -0.9950   -1.7960 P   0  0  0  0  0  4  0  0  0  0  0  0
   -0.0400   -0.7180   -1.2530 C   0  0  0  0  0  2  0  0  0  0  0  0
   -0.0600    0.0010    0.0090 N   0  0  0  0  0  0  0  0  0  0  0  0
   -0.0330    1.4570    0.0060 C   0  0  0  0  0  1  0  0  0  0  0  0
    0.0220   -0.6940    1.1800 C   0  0  0  0  0  3  0  0  0  0  0  0
    0.0610   -0.1160    2.2550 O   0  0  0  0  0  0  0  0  0  0  0  0
    2.5180    0.5460   -2.0280 O   0  0  0  0  0  0  0  0  0  0  0  0
    2.5250    1.0340   -1.1910 H   0  0  0  0  0  0  0  0  0  0  0  0
    2.5630   -1.9460   -0.5910 O   0  0  0  0  0  0  0  0  0  0  0  0
    2.5690   -1.4660    0.2520 H   0  0  0  0  0  0  0  0  0  0  0  0
    1.7290   -1.9290   -3.4240 C   0  0  0  0  0  2  0  0  0  0  0  0
    3.0960   -2.1480   -3.8600 N   0  0  0  0  0  0  0  0  0  0  0  0
    3.7970   -3.3530   -3.4390 C   0  0  0  0  0  1  0  0  0  0  0  0
    3.7150   -1.2130   -4.6380 C   0  0  0  0  0  3  0  0  0  0  0  0
    4.8670   -1.3670   -5.0120 O   0  0  0  0  0  0  0  0  0  0  0  0
  1  2  1  0  0  0  0
  1  9  1  0  0  0  0
  2  3  1  0  0  0  0
  3  5  1  0  0  0  0
  4  3  1  0  0  0  0
  5  6  2  0  0  0  0
  7  1  1  0  0  0  0
  7  8  1  0  0  0  0
  9 10  1  0  0  0  0
 11  1  1  0  0  0  0
 12 13  1  0  0  0  0
 12 11  1  0  0  0  0
 14 12  1  0  0  0  0
 15 14  2  0  0  0  0
M  END
>  <REMARK>
  8 active torsions:
  status: ('A' for Active; 'I' for Inactive)
    1  A    between atoms: N_2  and  C_3 
    2  A    between atoms: N_2  and  C_5 
    3  A    between atoms: C_5  and  P_6 
    4  A    between atoms: P_6  and  O_7 
    5  A    between atoms: P_6  and  O_8 
    6  A    between atoms: P_6  and  C_9 
    7  A    between atoms: C_9  and  N_10 
    8  A    between atoms: N_10  and  C_12 

>  <TORSDO>
F 8

$$$$
C:\Users\siddh\.mgltools\PyRx\Ligands\ZINC000001822037_uff_E=260.17.pdbqt
 OpenBabel04182118313D

 20 20  0  0  0  0  0  0  0  0999 V2000
    0.1100   -0.1300    0.0000 O   0  0  0  0  0  0  0  0  0  0  0  0
    0.0250    1.2150    0.0070 C   0  0  0  0  0  3  0  0  0  0  0  0
    0.2710   -1.0530   -0.0130 H   0  0  0  0  0  0  0  0  0  0  0  0
    1.1530    1.9480    0.0040 O   0  0  0  0  0  0  0  0  0  0  0  0
    1.1040    2.8840    0.0090 H   0  0  0  0  0  0  0  0  0  0  0  0
   -1.3070    1.9150    0.0180 C   0  0  0  0  0  2  0  0  0  0  0  0
   -2.4320    0.9950    0.0190 N   0  0  0  0  0  0  0  0  0  0  0  0
   -3.7080    1.4580    0.0280 C   0  0  0  0  0  0  0  0  0  0  0  0
   -3.9200    2.6640    0.0350 O   0  0  0  0  0  0  0  0  0  0  0  0
   -2.2770   -0.0240    0.0130 H   0  0  0  0  0  0  0  0  0  0  0  0
   -4.8580    0.4760    0.0280 C   0  0  0  0  0  2  0  0  0  0  0  0
   -6.1520    1.1400    0.0370 N   0  0  0  0  0  0  0  0  0  0  0  0
   -7.3130    0.4360    0.0400 C   0  0  0  0  0  0  0  0  0  0  0  0
   -7.2980   -0.7870    0.0340 O   0  0  0  0  0  0  0  0  0  0  0  0
   -6.2040    2.1680    0.0430 H   0  0  0  0  0  0  0  0  0  0  0  0
   -8.6010    1.1510    0.0500 C   0  0  0  0  0  0  0  0  0  0  0  0
   -8.7210    2.4610    0.0540 O   0  0  0  0  0  0  0  0  0  0  0  0
   -9.9970    2.7720    0.0630 C   0  0  0  0  0  3  0  0  0  0  0  0
  -10.7490    1.6150    0.0660 C   0  0  0  0  0  3  0  0  0  0  0  0
   -9.8510    0.5720    0.0570 C   0  0  0  0  0  3  0  0  0  0  0  0
  1  2  1  0  0  0  0
  2  6  1  0  0  0  0
  3  1  1  0  0  0  0
  4  2  1  0  0  0  0
  4  5  1  0  0  0  0
  6  7  1  0  0  0  0
  7  8  1  0  0  0  0
  8 11  1  0  0  0  0
  8  9  2  0  0  0  0
 10  7  1  0  0  0  0
 11 12  1  0  0  0  0
 12 13  1  0  0  0  0
 12 15  1  0  0  0  0
 13 16  1  0  0  0  0
 14 13  2  0  0  0  0
 16 17  1  0  0  0  0
 16 20  2  0  0  0  0
 17 18  1  0  0  0  0
 18 19  2  0  0  0  0
 20 19  1  0  0  0  0
M  END
>  <REMARK>
  6 active torsions:
  status: ('A' for Active; 'I' for Inactive)
    1  A    between atoms: C_2  and  O_3 
    2  A    between atoms: C_2  and  C_4 
    3  A    between atoms: C_4  and  N_5 
       I    between atoms: N_5  and  C_6 
    4  A    between atoms: C_6  and  C_8 
    5  A    between atoms: C_8  and  N_9 
       I    between atoms: N_9  and  C_10 
    6  A    between atoms: C_10  and  C_12 

>  <TORSDO>
F 6

$$$$
C:\Users\siddh\.mgltools\PyRx\Ligands\ZINC000001762468_uff_E=196.94.pdbqt
 OpenBabel04182118313D

 19 20  0  0  0  0  0  0  0  0999 V2000
   -0.0090    1.4730   -0.0060 C   0  0  0  0  0  1  0  0  0  0  0  0
   -0.0060   -0.0050    0.0310 N   0  0  0  0  0  0  0  0  0  0  0  0
    0.0040   -0.6940   -1.1710 C   0  0  0  0  0  0  0  0  0  0  0  0
    0.0000   -0.0820   -2.2300 O   0  0  0  0  0  0  0  0  0  0  0  0
    0.0240   -2.0940   -1.1810 C   0  0  0  0  0  0  0  0  0  0  0  0
    0.0290   -2.8190   -2.3890 C   0  0  0  0  0  3  0  0  0  0  0  0
    0.0490   -4.2130   -2.3760 C   0  0  0  0  0  3  0  0  0  0  0  0
    0.0640   -4.9110   -1.1600 C   0  0  0  0  0  0  0  0  0  0  0  0
    0.0590   -4.1940    0.0450 C   0  0  0  0  0  3  0  0  0  0  0  0
    0.0390   -2.7850    0.0400 C   0  0  0  0  0  0  0  0  0  0  0  0
    0.0360   -2.0570    1.2370 C   0  0  0  0  0  0  0  0  0  0  0  0
    0.0520   -2.6520    2.3040 O   0  0  0  0  0  0  0  0  0  0  0  0
    0.0150   -0.6710    1.2100 N   0  0  0  0  0  0  0  0  0  0  0  0
    0.0210    0.0730    2.4860 C   0  0  0  0  0  1  0  0  0  0  0  0
    0.0840   -6.3910   -1.1490 C   0  0  0  0  0  3  0  0  0  0  0  0
    0.0890   -7.0800   -2.3070 O   0  0  0  0  0  0  0  0  0  0  0  0
    0.1020   -8.0170   -2.2940 H   0  0  0  0  0  0  0  0  0  0  0  0
    0.0990   -7.0640    0.0180 O   0  0  0  0  0  0  0  0  0  0  0  0
    0.0960   -6.5950    0.8290 H   0  0  0  0  0  0  0  0  0  0  0  0
  1  2  1  0  0  0  0
  2 13  1  0  0  0  0
  3  2  1  0  0  0  0
  4  3  2  0  0  0  0
  5  3  1  0  0  0  0
  5 10  1  0  0  0  0
  6  7  1  0  0  0  0
  6  5  2  0  0  0  0
  7  8  2  0  0  0  0
  8 15  1  0  0  0  0
  8  9  1  0  0  0  0
 10  9  2  0  0  0  0
 10 11  1  0  0  0  0
 11 12  2  0  0  0  0
 13 11  1  0  0  0  0
 13 14  1  0  0  0  0
 15 18  1  0  0  0  0
 16 17  1  0  0  0  0
 16 15  1  0  0  0  0
 18 19  1  0  0  0  0
M  END
>  <REMARK>
  3 active torsions:
  status: ('A' for Active; 'I' for Inactive)
    1  A    between atoms: C_8  and  C_9 
    2  A    between atoms: C_9  and  O_10 
    3  A    between atoms: C_9  and  O_11 

>  <TORSDO>
F 3

$$$$
C:\Users\siddh\.mgltools\PyRx\Ligands\ZINC000001748317_uff_E=115.83.pdbqt
 OpenBabel04182118313D

 19 20  0  0  0  0  0  0  0  0999 V2000
    0.0050   -0.1270    0.0020 O   0  0  0  0  0  0  0  0  0  0  0  0
   -0.0210    1.2200    0.0070 C   0  0  0  0  0  3  0  0  0  0  0  0
    0.0550   -1.0620   -0.0060 H   0  0  0  0  0  0  0  0  0  0  0  0
    1.1390    1.9030    0.0020 O   0  0  0  0  0  0  0  0  0  0  0  0
    1.1310    2.8400    0.0050 H   0  0  0  0  0  0  0  0  0  0  0  0
   -1.3090    1.9400    0.0170 C   0  0  0  0  0  0  0  0  0  0  0  0
   -2.5170    1.2270    0.0220 C   0  0  0  0  0  3  0  0  0  0  0  0
   -3.7450    1.9110    0.0330 C   0  0  0  0  0  0  0  0  0  0  0  0
   -3.7570    3.3230    0.0370 C   0  0  0  0  0  0  0  0  0  0  0  0
   -4.9690    1.2210    0.0410 C   0  0  0  0  0  0  0  0  0  0  0  0
   -2.5400    4.0290    0.0300 C   0  0  0  0  0  3  0  0  0  0  0  0
   -4.9910    3.9900    0.0460 C   0  0  0  0  0  0  0  0  0  0  0  0
   -1.3290    3.3410    0.0210 C   0  0  0  0  0  3  0  0  0  0  0  0
   -5.0420    5.2100    0.0490 O   0  0  0  0  0  0  0  0  0  0  0  0
   -6.1540    3.2640    0.0530 N   0  0  0  0  0  0  0  0  0  0  0  0
   -6.1430    1.9280    0.0510 N   0  0  0  0  0  0  0  0  0  0  0  0
   -7.0700    3.7650    0.0600 H   0  0  0  0  0  0  0  0  0  0  0  0
   -7.0510    1.4110    0.0560 H   0  0  0  0  0  0  0  0  0  0  0  0
   -4.9990    0.0000    0.0390 O   0  0  0  0  0  0  0  0  0  0  0  0
  1  2  1  0  0  0  0
  2  6  1  0  0  0  0
  3  1  1  0  0  0  0
  4  5  1  0  0  0  0
  4  2  1  0  0  0  0
  6 13  2  0  0  0  0
  6  7  1  0  0  0  0
  7  8  2  0  0  0  0
  8  9  1  0  0  0  0
  8 10  1  0  0  0  0
  9 12  1  0  0  0  0
 10 16  1  0  0  0  0
 11  9  2  0  0  0  0
 12 14  2  0  0  0  0
 12 15  1  0  0  0  0
 13 11  1  0  0  0  0
 15 17  1  0  0  0  0
 16 15  1  0  0  0  0
 16 18  1  0  0  0  0
 19 10  2  0  0  0  0
M  END
>  <REMARK>
  2 active torsions:
  status: ('A' for Active; 'I' for Inactive)
    1  A    between atoms: C_2  and  O_3 
    2  A    between atoms: C_2  and  C_4 

>  <TORSDO>
F 2

$$$$
C:\Users\siddh\.mgltools\PyRx\Ligands\ZINC000001704749_uff_E=165.21.pdbqt
 OpenBabel04182118313D

 21 21  0  0  0  0  0  0  0  0999 V2000
   -2.0000   -0.1870   -1.4340 C   0  0  0  0  0  0  0  0  0  0  0  0
   -2.3090   -1.2030   -2.3610 C   0  0  0  0  0  0  0  0  0  0  0  0
   -2.8680   -0.8380   -3.5970 C   0  0  0  0  0  0  0  0  0  0  0  0
   -3.1390   -1.6820   -4.4320 O   0  0  0  0  0  0  0  0  0  0  0  0
   -3.1030    0.5090   -3.8710 C   0  0  0  0  0  3  0  0  0  0  0  0
   -2.7900    1.4630   -2.8980 C   0  0  0  0  0  0  0  0  0  0  0  0
   -2.2680    1.0820   -1.7370 O   0  0  0  0  0  0  0  0  0  0  0  0
   -1.3540   -0.4930   -0.0980 C   0  0  0  0  0  2  0  0  0  0  0  0
    0.0180    0.0730   -0.0080 N   0  0  0  0  0  0  0  0  0  0  0  0
   -0.0080    1.5520    0.0810 C   0  0  0  0  0  1  0  0  0  0  0  0
    0.7240   -0.4880    1.1680 C   0  0  0  0  0  2  0  0  0  0  0  0
    2.2120   -0.2400    1.1240 C   0  0  0  0  0  3  0  0  0  0  0  0
    2.7900    0.3600    0.0650 O   0  0  0  0  0  0  0  0  0  0  0  0
    3.7160    0.5050    0.0560 H   0  0  0  0  0  0  0  0  0  0  0  0
    2.9800   -0.6480    2.1510 O   0  0  0  0  0  0  0  0  0  0  0  0
    2.5890   -1.0660    2.8930 H   0  0  0  0  0  0  0  0  0  0  0  0
   -2.0590   -2.5010   -2.0680 O   0  0  0  0  0  0  0  0  0  0  0  0
   -2.2590   -3.2190   -2.6840 H   0  0  0  0  0  0  0  0  0  0  0  0
   -3.0150    2.9230   -3.1450 C   0  0  0  0  0  2  0  0  0  0  0  0
   -3.9250    3.4150   -2.2030 O   0  0  0  0  0  0  0  0  0  0  0  0
   -4.0630    4.3720   -2.4270 H   0  0  0  0  0  0  0  0  0  0  0  0
  1  8  1  0  0  0  0
  2 17  1  0  0  0  0
  2  1  2  0  0  0  0
  3  2  1  0  0  0  0
  4  3  2  0  0  0  0
  5  3  1  0  0  0  0
  5  6  2  0  0  0  0
  6  7  1  0  0  0  0
  7  1  1  0  0  0  0
  8  9  1  0  0  0  0
  9 10  1  0  0  0  0
  9 11  1  0  0  0  0
 12 11  1  0  0  0  0
 12 15  1  0  0  0  0
 13 12  1  0  0  0  0
 14 13  1  0  0  0  0
 15 16  1  0  0  0  0
 18 17  1  0  0  0  0
 19  6  1  0  0  0  0
 19 20  1  0  0  0  0
 21 20  1  0  0  0  0
M  END
>  <REMARK>
  9 active torsions:
  status: ('A' for Active; 'I' for Inactive)
    1  A    between atoms: N_2  and  C_3 
    2  A    between atoms: N_2  and  C_7 
    3  A    between atoms: C_3  and  C_4 
    4  A    between atoms: C_4  and  O_5 
    5  A    between atoms: C_4  and  O_6 
    6  A    between atoms: C_7  and  C_8 
    7  A    between atoms: C_9  and  O_10 
    8  A    between atoms: C_14  and  C_15 
    9  A    between atoms: C_15  and  O_16 

>  <TORSDO>
F 9

$$$$
C:\Users\siddh\.mgltools\PyRx\Ligands\ZINC000001644960_uff_E=279.65.pdbqt
 OpenBabel04182118313D

 20 20  0  0  1  0  0  0  0  0999 V2000
   -0.0170    1.5410    0.0020 C   0  0  0  0  0  1  0  0  0  0  0  0
   -0.0050    0.0520   -0.0080 C   0  0  1  0  0  3  0  0  0  0  0  0
   -0.0080   -0.6190   -1.1880 N   0  0  0  0  0  0  0  0  0  0  0  0
   -0.0130   -0.0970   -2.0640 H   0  0  0  0  0  0  0  0  0  0  0  0
   -0.0030   -1.9760   -1.2170 C   0  0  0  0  0  2  0  0  0  0  0  0
    0.0100   -2.7060   -0.0210 C   0  0  0  0  0  0  0  0  0  0  0  0
    0.0270   -1.9900    1.1960 C   0  0  0  0  0  0  0  0  0  0  0  0
    0.0150   -0.6300    1.1650 N   0  0  0  0  0  0  0  0  0  0  0  0
    0.0210   -0.1110    2.0430 H   0  0  0  0  0  0  0  0  0  0  0  0
    0.0300   -4.2090   -0.0780 C   0  0  0  0  0  2  0  0  0  0  0  0
    1.7710   -4.7890   -0.0640 S   0  0  0  0  0  0  0  0  0  0  0  0
    1.7720   -6.5130   -0.0780 O   0  0  0  0  0  0  0  0  0  0  0  0
    1.3300   -6.8310   -0.8810 H   0  0  0  0  0  0  0  0  0  0  0  0
    2.5570   -4.1780   -1.4740 O   0  0  0  0  0  0  0  0  0  0  0  0
    2.1100   -4.5150   -2.2660 H   0  0  0  0  0  0  0  0  0  0  0  0
    2.5520   -4.1990    1.3570 O   0  0  0  0  0  0  0  0  0  0  0  0
    2.1030   -4.5490    2.1430 H   0  0  0  0  0  0  0  0  0  0  0  0
    0.0570   -2.6420    2.4550 N   0  0  0  0  0  0  0  0  0  0  0  0
    0.0960   -3.6660    2.5410 H   0  0  0  0  0  0  0  0  0  0  0  0
    0.0570   -2.0830    3.3190 H   0  0  0  0  0  0  0  0  0  0  0  0
  2  1  1  6  0  0  0
  2  8  1  0  0  0  0
  3  2  1  0  0  0  0
  4  3  1  0  0  0  0
  5  3  1  0  0  0  0
  5  6  1  0  0  0  0
  6  7  2  0  0  0  0
  7 18  1  0  0  0  0
  8  7  1  0  0  0  0
  8  9  1  0  0  0  0
 10 11  1  0  0  0  0
 10  6  1  0  0  0  0
 11 16  1  0  0  0  0
 12 11  1  0  0  0  0
 13 12  1  0  0  0  0
 14 11  1  0  0  0  0
 15 14  1  0  0  0  0
 16 17  1  0  0  0  0
 18 19  1  0  0  0  0
 18 20  1  0  0  0  0
M  END
>  <REMARK>
  6 active torsions:
  status: ('A' for Active; 'I' for Inactive)
    1  A    between atoms: C_6  and  C_7 
    2  A    between atoms: C_7  and  S_8 
    3  A    between atoms: S_8  and  O_9 
    4  A    between atoms: S_8  and  O_10 
    5  A    between atoms: S_8  and  O_11 
    6  A    between atoms: C_12  and  N_13 

>  <TORSDO>
F 6

$$$$
C:\Users\siddh\.mgltools\PyRx\Ligands\ZINC000001640082_uff_E=96.71.pdbqt
 OpenBabel04182118313D

 18 17  0  0  1  0  0  0  0  0999 V2000
    2.0740    0.0430   -1.3290 C   0  0  0  0  0  0  0  0  0  0  0  0
    2.6380    0.8840   -0.6430 O   0  0  0  0  0  0  0  0  0  0  0  0
    2.7360   -0.5430   -2.3630 N   0  0  0  0  0  0  0  0  0  0  0  0
    2.2620   -1.2870   -2.8980 H   0  0  0  0  0  0  0  0  0  0  0  0
    4.1070   -0.1720   -2.6970 C   0  0  1  0  0  3  0  0  0  0  0  0
    4.7310   -1.1530   -3.7020 C   0  0  0  0  0  2  0  0  0  0  0  0
    4.0340   -1.1510   -4.9170 O   0  0  0  0  0  0  0  0  0  0  0  0
    4.5550   -1.7370   -5.5260 H   0  0  0  0  0  0  0  0  0  0  0  0
    4.1490    1.2400   -3.2290 C   0  0  0  0  0  3  0  0  0  0  0  0
    4.8850    2.1770   -2.6010 O   0  0  0  0  0  0  0  0  0  0  0  0
    4.9100    3.0530   -2.9330 H   0  0  0  0  0  0  0  0  0  0  0  0
    3.4440    1.5740   -4.3280 O   0  0  0  0  0  0  0  0  0  0  0  0
    2.9300    0.9270   -4.7700 H   0  0  0  0  0  0  0  0  0  0  0  0
    0.7900   -0.3330   -1.0510 O   0  0  0  0  0  0  0  0  0  0  0  0
    0.0300    0.0560    0.0540 C   0  0  0  0  0  0  0  0  0  0  0  0
   -0.1420    1.5910    0.1070 C   0  0  0  0  0  1  0  0  0  0  0  0
    0.6800   -0.4660    1.3520 C   0  0  0  0  0  1  0  0  0  0  0  0
   -1.3660   -0.5760   -0.0810 C   0  0  0  0  0  1  0  0  0  0  0  0
  1 14  1  0  0  0  0
  1  2  2  0  0  0  0
  3  1  1  0  0  0  0
  4  3  1  0  0  0  0
  5  6  1  6  0  0  0
  5  3  1  0  0  0  0
  7  6  1  0  0  0  0
  8  7  1  0  0  0  0
  9  5  1  0  0  0  0
  9 10  1  0  0  0  0
 11 10  1  0  0  0  0
 12  9  1  0  0  0  0
 13 12  1  0  0  0  0
 14 15  1  0  0  0  0
 15 16  1  0  0  0  0
 15 17  1  0  0  0  0
 18 15  1  0  0  0  0
M  END
>  <REMARK>
  8 active torsions:
  status: ('A' for Active; 'I' for Inactive)
    1  A    between atoms: C_2  and  O_5 
    2  A    between atoms: O_5  and  C_6 
       I    between atoms: C_6  and  N_8 
    3  A    between atoms: N_8  and  C_9 
    4  A    between atoms: C_9  and  C_10 
    5  A    between atoms: C_9  and  C_12 
    6  A    between atoms: C_10  and  O_11 
    7  A    between atoms: C_12  and  O_13 
    8  A    between atoms: C_12  and  O_14 

>  <TORSDO>
F 8

$$$$
C:\Users\siddh\.mgltools\PyRx\Ligands\ZINC000001603203_uff_E=491.11.pdbqt
 OpenBabel04182118313D

 19 19  0  0  0  0  0  0  0  0999 V2000
   -2.3290   -0.3480   -1.4470 C   0  0  0  0  0  0  0  0  0  0  0  0
   -3.2200    0.7300   -1.4130 C   0  0  0  0  0  3  0  0  0  0  0  0
   -3.9340    1.0850   -2.5590 C   0  0  0  0  0  3  0  0  0  0  0  0
   -3.7630    0.3650   -3.7440 C   0  0  0  0  0  3  0  0  0  0  0  0
   -2.8700   -0.7200   -3.7930 C   0  0  0  0  0  0  0  0  0  0  0  0
   -2.1530   -1.0720   -2.6340 C   0  0  0  0  0  3  0  0  0  0  0  0
   -1.4050   -0.7890    0.0300 S   0  0  0  0  0  0  0  0  0  0  0  0
   -1.0920   -2.2910    0.0990 O   0  0  0  0  0  0  0  0  0  0  0  0
   -2.2130   -0.5880    1.3220 O   0  0  0  0  0  0  0  0  0  0  0  0
    0.1480    0.0130    0.3220 N   0  0  0  0  0  0  0  0  0  0  0  0
    0.8530   -0.3770   -0.3460 H   0  0  0  0  0  0  0  0  0  0  0  0
   -0.0030    1.3910    0.0820 N   0  0  0  0  0  0  0  0  0  0  0  0
    0.9460    1.8300    0.1250 H   0  0  0  0  0  0  0  0  0  0  0  0
   -0.3660    1.5380   -0.8880 H   0  0  0  0  0  0  0  0  0  0  0  0
   -2.6870   -1.4830   -5.0500 C   0  0  0  0  0  3  0  0  0  0  0  0
   -3.3700   -1.1410   -6.1610 O   0  0  0  0  0  0  0  0  0  0  0  0
   -3.2500   -1.6270   -6.9530 H   0  0  0  0  0  0  0  0  0  0  0  0
   -1.8360   -2.5260   -5.0980 O   0  0  0  0  0  0  0  0  0  0  0  0
   -1.3550   -2.7740   -4.3330 H   0  0  0  0  0  0  0  0  0  0  0  0
  1  2  1  0  0  0  0
  1  7  1  0  0  0  0
  3  2  2  0  0  0  0
  4  3  1  0  0  0  0
  5  4  2  0  0  0  0
  5  6  1  0  0  0  0
  6  1  2  0  0  0  0
  7  8  2  0  0  0  0
  7 10  1  0  0  0  0
  7  9  2  0  0  0  0
 11 10  1  0  0  0  0
 12 13  1  0  0  0  0
 12 10  1  0  0  0  0
 14 12  1  0  0  0  0
 15  5  1  0  0  0  0
 16 15  1  0  0  0  0
 17 16  1  0  0  0  0
 18 15  1  0  0  0  0
 18 19  1  0  0  0  0
M  END
>  <REMARK>
  6 active torsions:
  status: ('A' for Active; 'I' for Inactive)
    1  A    between atoms: N_1  and  N_2 
    2  A    between atoms: N_2  and  S_3 
    3  A    between atoms: S_3  and  C_6 
    4  A    between atoms: C_10  and  C_11 
    5  A    between atoms: C_11  and  O_12 
    6  A    between atoms: C_11  and  O_13 

>  <TORSDO>
F 6

$$$$
C:\Users\siddh\.mgltools\PyRx\Ligands\ZINC000001576322_uff_E=98.47.pdbqt
 OpenBabel04182118313D

 20 19  0  0  0  0  0  0  0  0999 V2000
    4.0280   -0.1420   -2.7140 C   0  0  0  0  0  2  0  0  0  0  0  0
    2.6440   -0.4920   -2.4370 N   0  0  0  0  0  0  0  0  0  0  0  0
    2.0440   -0.0350   -1.3100 C   0  0  0  0  0  0  0  0  0  0  0  0
    2.6740    0.6700   -0.5330 O   0  0  0  0  0  0  0  0  0  0  0  0
    2.1060   -1.0850   -3.0860 H   0  0  0  0  0  0  0  0  0  0  0  0
    0.7440   -0.3630   -1.0510 O   0  0  0  0  0  0  0  0  0  0  0  0
    0.0130    0.0390    0.0660 C   0  0  0  0  0  0  0  0  0  0  0  0
   -0.1110    1.5780    0.1030 C   0  0  0  0  0  1  0  0  0  0  0  0
    0.6650   -0.4990    1.3590 C   0  0  0  0  0  1  0  0  0  0  0  0
   -1.4010   -0.5550   -0.0420 C   0  0  0  0  0  1  0  0  0  0  0  0
    4.5680   -0.7150   -3.9960 C   0  0  0  0  0  0  0  0  0  0  0  0
    3.8650   -1.4130   -4.7150 O   0  0  0  0  0  0  0  0  0  0  0  0
    5.8550   -0.4450   -4.3440 N   0  0  0  0  0  0  0  0  0  0  0  0
    6.4180    0.1460   -3.7130 H   0  0  0  0  0  0  0  0  0  0  0  0
    6.4350   -0.9680   -5.5680 C   0  0  0  0  0  2  0  0  0  0  0  0
    7.8700   -0.5500   -5.7640 C   0  0  0  0  0  3  0  0  0  0  0  0
    8.5050    0.2290   -4.8660 O   0  0  0  0  0  0  0  0  0  0  0  0
    9.3970    0.4770   -5.0080 H   0  0  0  0  0  0  0  0  0  0  0  0
    8.5320   -0.9660   -6.8600 O   0  0  0  0  0  0  0  0  0  0  0  0
    8.1000   -1.5080   -7.4900 H   0  0  0  0  0  0  0  0  0  0  0  0
  1  2  1  0  0  0  0
  2  3  1  0  0  0  0
  3  6  1  0  0  0  0
  3  4  2  0  0  0  0
  5  2  1  0  0  0  0
  6  7  1  0  0  0  0
  7  8  1  0  0  0  0
  7  9  1  0  0  0  0
 10  7  1  0  0  0  0
 11  1  1  0  0  0  0
 12 11  2  0  0  0  0
 13 11  1  0  0  0  0
 13 14  1  0  0  0  0
 15 13  1  0  0  0  0
 16 15  1  0  0  0  0
 16 17  1  0  0  0  0
 18 17  1  0  0  0  0
 19 16  1  0  0  0  0
 20 19  1  0  0  0  0
M  END
>  <REMARK>
  8 active torsions:
  status: ('A' for Active; 'I' for Inactive)
    1  A    between atoms: C_2  and  O_5 
    2  A    between atoms: O_5  and  C_6 
       I    between atoms: C_6  and  N_8 
    3  A    between atoms: N_8  and  C_9 
    4  A    between atoms: C_9  and  C_10 
       I    between atoms: C_10  and  N_12 
    5  A    between atoms: N_12  and  C_13 
    6  A    between atoms: C_13  and  C_14 
    7  A    between atoms: C_14  and  O_15 
    8  A    between atoms: C_14  and  O_16 

>  <TORSDO>
F 8

$$$$
C:\Users\siddh\.mgltools\PyRx\Ligands\ZINC000001569716_uff_E=129.14.pdbqt
 OpenBabel04182118313D

 21 21  0  0  0  0  0  0  0  0999 V2000
    0.1790   -0.1400   -0.0000 O   0  0  0  0  0  0  0  0  0  0  0  0
    0.0800    1.2030    0.0070 C   0  0  0  0  0  3  0  0  0  0  0  0
    0.3650   -1.0580   -0.0140 H   0  0  0  0  0  0  0  0  0  0  0  0
    1.2010    1.9490    0.0050 O   0  0  0  0  0  0  0  0  0  0  0  0
    1.1410    2.8840    0.0100 H   0  0  0  0  0  0  0  0  0  0  0  0
   -1.2580    1.8900    0.0180 C   0  0  0  0  0  2  0  0  0  0  0  0
   -2.3790    0.9620    0.0190 N   0  0  0  0  0  0  0  0  0  0  0  0
   -3.6550    1.4260    0.0270 C   0  0  0  0  0  0  0  0  0  0  0  0
   -3.8610    2.6330    0.0350 O   0  0  0  0  0  0  0  0  0  0  0  0
   -2.2210   -0.0560    0.0120 H   0  0  0  0  0  0  0  0  0  0  0  0
   -4.8160    0.4480    0.0270 C   0  0  0  0  0  2  0  0  0  0  0  0
   -6.1000    1.1320    0.0370 N   0  0  0  0  0  0  0  0  0  0  0  0
   -7.2860    0.4600    0.0390 C   0  0  0  0  0  0  0  0  0  0  0  0
   -7.2850   -0.7640    0.0330 O   0  0  0  0  0  0  0  0  0  0  0  0
   -6.1020    2.1530    0.0420 H   0  0  0  0  0  0  0  0  0  0  0  0
   -8.6000    1.1930    0.0480 C   0  0  0  0  0  0  0  0  0  0  0  0
   -9.8040    0.4590    0.0550 C   0  0  0  0  0  3  0  0  0  0  0  0
  -11.0390    1.1180    0.0640 C   0  0  0  0  0  3  0  0  0  0  0  0
  -11.0920    2.5120    0.0680 C   0  0  0  0  0  3  0  0  0  0  0  0
   -9.9140    3.2530    0.0610 C   0  0  0  0  0  3  0  0  0  0  0  0
   -8.6780    2.6090    0.0510 C   0  0  0  0  0  3  0  0  0  0  0  0
  1  2  1  0  0  0  0
  2  6  1  0  0  0  0
  3  1  1  0  0  0  0
  4  2  1  0  0  0  0
  4  5  1  0  0  0  0
  6  7  1  0  0  0  0
  7  8  1  0  0  0  0
  8 11  1  0  0  0  0
  8  9  2  0  0  0  0
 10  7  1  0  0  0  0
 11 12  1  0  0  0  0
 12 13  1  0  0  0  0
 12 15  1  0  0  0  0
 13 16  1  0  0  0  0
 14 13  2  0  0  0  0
 16 21  2  0  0  0  0
 16 17  1  0  0  0  0
 17 18  2  0  0  0  0
 18 19  1  0  0  0  0
 20 19  2  0  0  0  0
 21 20  1  0  0  0  0
M  END
>  <REMARK>
  6 active torsions:
  status: ('A' for Active; 'I' for Inactive)
    1  A    between atoms: C_2  and  O_3 
    2  A    between atoms: C_2  and  C_4 
    3  A    between atoms: C_4  and  N_5 
       I    between atoms: N_5  and  C_6 
    4  A    between atoms: C_6  and  C_8 
    5  A    between atoms: C_8  and  N_9 
       I    between atoms: N_9  and  C_10 
    6  A    between atoms: C_10  and  C_12 

>  <TORSDO>
F 6

$$$$
C:\Users\siddh\.mgltools\PyRx\Ligands\ZINC000001536869_uff_E=324.19.pdbqt
 OpenBabel04182118313D

 19 20  0  0  1  0  0  0  0  0999 V2000
   -1.3270    1.9730   -0.0160 C   0  0  1  0  0  3  0  0  0  0  0  0
   -1.7960    2.0360   -1.4670 C   0  0  0  0  0  2  0  0  0  0  0  0
   -3.5970    1.9410   -1.4510 S   0  0  0  0  0  0  0  0  0  0  0  0
   -3.4960    0.8220   -0.0140 C   0  0  0  0  0  2  0  0  0  0  0  0
   -2.2900    1.1680    0.7130 N   0  0  0  0  0  0  0  0  0  0  0  0
   -2.1290    0.8790    2.0480 C   0  0  0  0  0  0  0  0  0  0  0  0
   -1.1500    1.3140    2.6450 O   0  0  0  0  0  0  0  0  0  0  0  0
    0.0590    1.3730    0.0260 C   0  0  0  0  0  3  0  0  0  0  0  0
    0.2640    0.1130   -0.4080 O   0  0  0  0  0  0  0  0  0  0  0  0
    0.5810   -0.4570   -1.0810 H   0  0  0  0  0  0  0  0  0  0  0  0
    1.0940    2.0890    0.5030 O   0  0  0  0  0  0  0  0  0  0  0  0
    0.9580    2.9650    0.8060 H   0  0  0  0  0  0  0  0  0  0  0  0
   -3.1440    0.0570    2.8300 C   0  0  2  0  0  3  0  0  0  0  0  0
   -2.8650    0.0320    4.2410 N   0  0  0  0  0  0  0  0  0  0  0  0
   -3.0370   -1.1870    4.7620 C   0  0  0  0  0  0  0  0  0  0  0  0
   -2.7210    0.8760    4.8170 H   0  0  0  0  0  0  0  0  0  0  0  0
   -3.4340   -2.2030    3.7550 C   0  0  0  0  0  2  0  0  0  0  0  0
   -3.0000   -1.3970    5.9640 O   0  0  0  0  0  0  0  0  0  0  0  0
   -3.0630   -1.4450    2.4670 C   0  0  0  0  0  2  0  0  0  0  0  0
  1  8  1  6  0  0  0
  1  5  1  0  0  0  0
  2  3  1  0  0  0  0
  2  1  1  0  0  0  0
  3  4  1  0  0  0  0
  4  5  1  0  0  0  0
  5  6  1  0  0  0  0
  6  7  2  0  0  0  0
  8 11  1  0  0  0  0
  9  8  1  0  0  0  0
 10  9  1  0  0  0  0
 11 12  1  0  0  0  0
 13  6  1  6  0  0  0
 13 14  1  0  0  0  0
 14 15  1  0  0  0  0
 14 16  1  0  0  0  0
 15 18  2  0  0  0  0
 17 15  1  0  0  0  0
 19 13  1  0  0  0  0
 19 17  1  0  0  0  0
M  END
>  <REMARK>
  4 active torsions:
  status: ('A' for Active; 'I' for Inactive)
    1  A    between atoms: O_1  and  C_2 
    2  A    between atoms: C_2  and  O_3 
    3  A    between atoms: C_2  and  C_4 
       I    between atoms: N_8  and  C_9 
    4  A    between atoms: C_9  and  C_11 

>  <TORSDO>
F 4

$$$$
C:\Users\siddh\.mgltools\PyRx\Ligands\ZINC000001532279_uff_E=104.95.pdbqt
 OpenBabel04182118313D

 18 17  0  0  1  0  0  0  0  0999 V2000
    1.6800   -4.2580    2.7410 C   0  0  2  0  0  3  0  0  0  0  0  0
    1.5390   -2.7450    2.5230 C   0  0  0  0  0  2  0  0  0  0  0  0
    0.6490   -2.4470    0.9500 S   0  0  0  0  0  0  0  0  0  0  0  0
    0.6270   -0.6460    1.0130 C   0  0  0  0  0  0  0  0  0  0  0  0
    0.0160    0.0420    0.0150 N   0  0  0  0  0  0  0  0  0  0  0  0
   -0.0260    1.4870    0.0030 C   0  0  0  0  0  1  0  0  0  0  0  0
   -0.4270   -0.4770   -0.7580 H   0  0  0  0  0  0  0  0  0  0  0  0
    1.1590   -0.0500    1.9400 O   0  0  0  0  0  0  0  0  0  0  0  0
    0.3640   -4.8850    2.8080 N   0  0  0  0  0  0  0  0  0  0  0  0
    0.1870   -6.2110    2.5500 C   0  0  0  0  0  0  0  0  0  0  0  0
   -1.1850   -6.8170    2.6080 C   0  0  0  0  0  1  0  0  0  0  0  0
    1.1360   -6.9180    2.2490 O   0  0  0  0  0  0  0  0  0  0  0  0
   -0.4610   -4.3000    3.0100 H   0  0  0  0  0  0  0  0  0  0  0  0
    2.4660   -4.5350    3.9990 C   0  0  0  0  0  3  0  0  0  0  0  0
    1.9080   -5.2070    5.0260 O   0  0  0  0  0  0  0  0  0  0  0  0
    2.4050   -5.3740    5.8020 H   0  0  0  0  0  0  0  0  0  0  0  0
    3.7350   -4.0970    4.1080 O   0  0  0  0  0  0  0  0  0  0  0  0
    4.1320   -3.6290    3.4000 H   0  0  0  0  0  0  0  0  0  0  0  0
  1  2  1  1  0  0  0
  1  9  1  0  0  0  0
  1 14  1  0  0  0  0
  3  4  1  0  0  0  0
  3  2  1  0  0  0  0
  4  8  2  0  0  0  0
  5  4  1  0  0  0  0
  6  5  1  0  0  0  0
  7  5  1  0  0  0  0
  9 13  1  0  0  0  0
 10 11  1  0  0  0  0
 10  9  1  0  0  0  0
 12 10  2  0  0  0  0
 14 17  1  0  0  0  0
 14 15  1  0  0  0  0
 15 16  1  0  0  0  0
 18 17  1  0  0  0  0
M  END
>  <REMARK>
  7 active torsions:
  status: ('A' for Active; 'I' for Inactive)
       I    between atoms: N_2  and  C_3 
    1  A    between atoms: C_3  and  S_5 
    2  A    between atoms: S_5  and  C_6 
    3  A    between atoms: C_6  and  C_7 
    4  A    between atoms: C_7  and  N_8 
    5  A    between atoms: C_7  and  C_12 
       I    between atoms: N_8  and  C_9 
    6  A    between atoms: C_12  and  O_13 
    7  A    between atoms: C_12  and  O_14 

>  <TORSDO>
F 7

$$$$
C:\Users\siddh\.mgltools\PyRx\Ligands\ZINC000001514644_uff_E=370.52.pdbqt
 OpenBabel04182118313D

 18 19  0  0  0  0  0  0  0  0999 V2000
    0.0320    1.5360    0.0100 C   0  0  0  0  0  1  0  0  0  0  0  0
    0.0750    0.0790    0.0010 N   0  0  0  0  0  0  0  0  0  0  0  0
   -0.9940   -0.7570    0.0030 C   0  0  0  0  0  0  0  0  0  0  0  0
   -2.1420   -0.3530    0.0130 O   0  0  0  0  0  0  0  0  0  0  0  0
   -0.6210   -2.0840   -0.0070 N   0  0  0  0  0  0  0  0  0  0  0  0
    0.7440   -2.0320   -0.0150 C   0  0  0  0  0  0  0  0  0  0  0  0
    1.1540   -0.7170   -0.0100 C   0  0  0  0  0  0  0  0  0  0  0  0
   -1.4910   -3.2650   -0.0090 C   0  0  0  0  0  0  0  0  0  0  0  0
   -2.9050   -3.1470   -0.0070 C   0  0  0  0  0  2  0  0  0  0  0  0
   -3.6940   -4.2530   -0.0100 N   0  0  0  0  0  0  0  0  0  0  0  0
   -3.1760   -5.5040   -0.0160 C   0  0  0  0  0  3  0  0  0  0  0  0
   -4.7080   -4.1370   -0.0090 H   0  0  0  0  0  0  0  0  0  0  0  0
   -1.7990   -5.6840   -0.0190 C   0  0  0  0  0  3  0  0  0  0  0  0
   -0.9580   -4.5740   -0.0150 C   0  0  0  0  0  3  0  0  0  0  0  0
    1.5750   -3.0910   -0.0260 O   0  0  0  0  0  0  0  0  0  0  0  0
    2.5360   -2.9790   -0.0310 H   0  0  0  0  0  0  0  0  0  0  0  0
    2.4260   -0.2810   -0.0160 O   0  0  0  0  0  0  0  0  0  0  0  0
    2.6070    0.6380   -0.0120 H   0  0  0  0  0  0  0  0  0  0  0  0
  2  3  1  0  0  0  0
  2  1  1  0  0  0  0
  3  4  2  0  0  0  0
  5  3  1  0  0  0  0
  6  7  2  0  0  0  0
  6  5  1  0  0  0  0
  7  2  1  0  0  0  0
  8  5  1  0  0  0  0
  8  9  1  0  0  0  0
 10 12  1  0  0  0  0
 10  9  1  0  0  0  0
 11 10  1  0  0  0  0
 13 11  2  0  0  0  0
 13 14  1  0  0  0  0
 14  8  2  0  0  0  0
 15  6  1  0  0  0  0
 16 15  1  0  0  0  0
 17 18  1  0  0  0  0
 17  7  1  0  0  0  0
M  END
>  <REMARK>
  3 active torsions:
  status: ('A' for Active; 'I' for Inactive)
    1  A    between atoms: N_5  and  C_6 
    2  A    between atoms: C_13  and  O_14 
    3  A    between atoms: C_15  and  O_16 

>  <TORSDO>
F 3

$$$$
C:\Users\siddh\.mgltools\PyRx\Ligands\ZINC000001511379_uff_E=295.54.pdbqt
 OpenBabel04182118313D

 18 19  0  0  1  0  0  0  0  0999 V2000
   -0.0300    1.4050    0.0080 N   0  0  0  0  0  0  0  0  0  0  0  0
   -0.0120   -0.0050    0.0010 C   0  0  1  0  0  3  0  0  0  0  0  0
   -1.1920   -0.7020    0.0040 N   0  0  0  0  0  0  0  0  0  0  0  0
   -2.0880   -0.2140    0.0120 H   0  0  0  0  0  0  0  0  0  0  0  0
   -1.1380   -2.0550   -0.0040 C   0  0  0  0  0  0  0  0  0  0  0  0
    0.0270   -2.7330   -0.0140 C   0  0  0  0  0  0  0  0  0  0  0  0
   -0.2160   -4.0510   -0.0200 N   0  0  0  0  0  0  0  0  0  0  0  0
    0.4590   -4.8160   -0.0280 H   0  0  0  0  0  0  0  0  0  0  0  0
   -1.5730   -4.1270   -0.0130 C   0  0  2  0  0  3  0  0  0  0  0  0
   -2.5290   -5.7750   -0.0180 Br  0  0  0  0  0  0  0  0  0  0  0  0
   -2.1720   -2.9060   -0.0030 N   0  0  0  0  0  0  0  0  0  0  0  0
    1.2310   -2.0500   -0.0170 C   0  0  0  0  0  0  0  0  0  0  0  0
    2.2960   -2.6440   -0.0260 O   0  0  0  0  0  0  0  0  0  0  0  0
    1.1920   -0.6730   -0.0100 N   0  0  0  0  0  0  0  0  0  0  0  0
    0.8550    1.9330    0.0050 H   0  0  0  0  0  0  0  0  0  0  0  0
   -0.9260    1.9110    0.0170 H   0  0  0  0  0  0  0  0  0  0  0  0
    2.0840   -0.1290   -0.0130 H   0  0  0  0  0  0  0  0  0  0  0  0
   -3.1340   -2.6990    0.0030 H   0  0  0  0  0  0  0  0  0  0  0  0
  1 16  1  0  0  0  0
  2  3  1  0  0  0  0
  2  1  1  6  0  0  0
  3  4  1  0  0  0  0
  5 11  1  0  0  0  0
  5  3  1  0  0  0  0
  6  5  2  0  0  0  0
  7  6  1  0  0  0  0
  7  9  1  0  0  0  0
  8  7  1  0  0  0  0
  9 10  1  6  0  0  0
  9 11  1  0  0  0  0
 11 18  1  0  0  0  0
 12  6  1  0  0  0  0
 12 14  1  0  0  0  0
 13 12  2  0  0  0  0
 14  2  1  0  0  0  0
 15  1  1  0  0  0  0
 17 14  1  0  0  0  0
M  END
>  <REMARK>
  0 active torsions:
  status: ('A' for Active; 'I' for Inactive)
       I    between atoms: N_1  and  C_2 

>  <TORSDO>
F 0

$$$$
C:\Users\siddh\.mgltools\PyRx\Ligands\ZINC000001424246_uff_E=405.37.pdbqt
 OpenBabel04182118313D

 24 25  0  0  0  0  0  0  0  0999 V2000
    2.5660   -0.6020   -0.4600 C   0  0  0  0  0  0  0  0  0  0  0  0
    2.8740    0.2820   -1.2440 O   0  0  0  0  0  0  0  0  0  0  0  0
    3.5130   -1.4580    0.0160 N   0  0  0  0  0  0  0  0  0  0  0  0
    3.2130   -2.2730    0.4800 H   0  0  0  0  0  0  0  0  0  0  0  0
    1.1610   -0.7190   -0.0150 C   0  0  0  0  0  0  0  0  0  0  0  0
    0.0900    0.1030   -0.3180 C   0  0  0  0  0  0  0  0  0  0  0  0
   -0.9910   -0.3590    0.3420 N   0  0  0  0  0  0  0  0  0  0  0  0
   -0.5870   -1.4070    1.0100 O   0  0  0  0  0  0  0  0  0  0  0  0
   -1.9340    0.0310    0.3240 H   0  0  0  0  0  0  0  0  0  0  0  0
    0.6780   -1.6480    0.8230 N   0  0  0  0  0  0  0  0  0  0  0  0
    0.0780    1.2540   -1.1430 N   0  0  0  0  0  0  0  0  0  0  0  0
    0.9260    1.5840   -1.6210 H   0  0  0  0  0  0  0  0  0  0  0  0
   -0.7940    1.7890   -1.2630 H   0  0  0  0  0  0  0  0  0  0  0  0
    1.3470   -2.6450    1.3960 O   0  0  0  0  0  0  0  0  0  0  0  0
    0.9040   -3.2390    1.9690 H   0  0  0  0  0  0  0  0  0  0  0  0
    4.9170   -1.2370   -0.1210 C   0  0  0  0  0  0  0  0  0  0  0  0
    5.8130   -2.3260   -0.2230 C   0  0  0  0  0  0  0  0  0  0  0  0
    7.1930   -2.0790   -0.3310 C   0  0  0  0  0  3  0  0  0  0  0  0
    7.6820   -0.7700   -0.3260 C   0  0  0  0  0  3  0  0  0  0  0  0
    6.8030    0.3030   -0.2100 C   0  0  0  0  0  3  0  0  0  0  0  0
    5.4340    0.0760   -0.1050 C   0  0  0  0  0  3  0  0  0  0  0  0
    5.3420   -3.6660   -0.2270 N   0  0  0  0  0  0  0  0  0  0  0  0
    6.0070   -4.4500   -0.3080 H   0  0  0  0  0  0  0  0  0  0  0  0
    4.3370   -3.8790   -0.1570 H   0  0  0  0  0  0  0  0  0  0  0  0
  1  5  1  0  0  0  0
  1  3  1  0  0  0  0
  2  1  2  0  0  0  0
  3  4  1  0  0  0  0
  5 10  1  0  0  0  0
  6  5  2  0  0  0  0
  6  7  1  0  0  0  0
  7  8  1  0  0  0  0
  9  7  1  0  0  0  0
 10  8  1  0  0  0  0
 10 14  1  0  0  0  0
 11  6  1  0  0  0  0
 12 11  1  0  0  0  0
 13 11  1  0  0  0  0
 14 15  1  0  0  0  0
 16 21  1  0  0  0  0
 16  3  1  0  0  0  0
 17 16  2  0  0  0  0
 18 19  2  0  0  0  0
 18 17  1  0  0  0  0
 19 20  1  0  0  0  0
 20 21  2  0  0  0  0
 22 17  1  0  0  0  0
 22 24  1  0  0  0  0
 23 22  1  0  0  0  0
M  END
>  <REMARK>
  5 active torsions:
  status: ('A' for Active; 'I' for Inactive)
    1  A    between atoms: N_1  and  C_2 
    2  A    between atoms: N_6  and  O_7 
    3  A    between atoms: C_8  and  C_9 
       I    between atoms: C_9  and  N_11 
    4  A    between atoms: N_11  and  C_12 
    5  A    between atoms: C_17  and  N_18 

>  <TORSDO>
F 5

$$$$
C:\Users\siddh\.mgltools\PyRx\Ligands\ZINC000001417063_uff_E=326.80.pdbqt
 OpenBabel04182118313D

 18 18  0  0  0  0  0  0  0  0999 V2000
   -1.2680   -0.7390    0.0050 C   0  0  0  0  0  0  0  0  0  0  0  0
   -1.3760   -2.1440   -0.0040 C   0  0  0  0  0  0  0  0  0  0  0  0
   -2.9930   -2.4210    0.0150 S   0  0  0  0  0  0  0  0  0  0  0  0
   -3.5600   -0.8870    0.0320 N   0  0  0  0  0  2  0  0  0  0  0  0
   -2.4930   -0.0810    0.0250 N   0  0  0  0  0  0  0  0  0  0  0  0
   -2.5710    0.9360    0.0330 H   0  0  0  0  0  0  0  0  0  0  0  0
   -0.3130   -3.0920   -0.0210 N   0  0  0  0  0  0  0  0  0  0  0  0
   -0.4870   -4.4410    0.0100 C   0  0  0  0  0  0  0  0  0  0  0  0
   -1.6070   -4.9290    0.0580 O   0  0  0  0  0  0  0  0  0  0  0  0
    0.6090   -2.7480   -0.0590 H   0  0  0  0  0  0  0  0  0  0  0  0
    0.7070   -5.3440   -0.0050 C   0  0  0  0  0  3  0  0  0  0  0  0
    1.5200   -5.0580    1.0760 F   0  0  0  0  0  0  0  0  0  0  0  0
    0.3090   -6.6680    0.0700 F   0  0  0  0  0  0  0  0  0  0  0  0
    0.0110    0.0070   -0.0010 C   0  0  0  0  0  0  0  0  0  0  0  0
    0.0120    1.3620    0.0080 N   0  0  0  0  0  0  0  0  0  0  0  0
    0.9010    1.8830    0.0030 H   0  0  0  0  0  0  0  0  0  0  0  0
   -0.8720    1.8920    0.0180 H   0  0  0  0  0  0  0  0  0  0  0  0
    1.0730   -0.5960   -0.0130 O   0  0  0  0  0  0  0  0  0  0  0  0
  1  5  1  0  0  0  0
  2  1  2  0  0  0  0
  2  3  1  0  0  0  0
  3  4  1  0  0  0  0
  5  4  1  0  0  0  0
  5  6  1  0  0  0  0
  7  2  1  0  0  0  0
  7  8  1  0  0  0  0
  8  9  2  0  0  0  0
 10  7  1  0  0  0  0
 11  8  1  0  0  0  0
 11 13  1  0  0  0  0
 11 12  1  0  0  0  0
 14  1  1  0  0  0  0
 14 15  1  0  0  0  0
 15 17  1  0  0  0  0
 16 15  1  0  0  0  0
 18 14  2  0  0  0  0
M  END
>  <REMARK>
  3 active torsions:
  status: ('A' for Active; 'I' for Inactive)
       I    between atoms: N_1  and  C_2 
    1  A    between atoms: C_2  and  C_4 
    2  A    between atoms: C_5  and  N_6 
       I    between atoms: N_6  and  C_7 
    3  A    between atoms: C_7  and  C_9 

>  <TORSDO>
F 3

$$$$
C:\Users\siddh\.mgltools\PyRx\Ligands\ZINC000001402384_uff_E=374.83.pdbqt
 OpenBabel04182118313D

 19 20  0  0  1  0  0  0  0  0999 V2000
    0.1410   -3.3710    1.3460 C   0  0  0  0  0  0  0  0  0  0  0  0
   -0.9210   -3.6860    2.2150 C   0  0  0  0  0  0  0  0  0  0  0  0
   -0.9560   -4.8980    2.8540 N   0  0  0  0  0  0  0  0  0  0  0  0
   -2.0850   -5.2550    3.7340 C   0  0  0  0  0  1  0  0  0  0  0  0
    0.0680   -5.8100    2.6790 C   0  0  0  0  0  0  0  0  0  0  0  0
    0.0330   -6.8790    3.2700 O   0  0  0  0  0  0  0  0  0  0  0  0
    1.1280   -5.5180    1.8420 N   0  0  0  0  0  0  0  0  0  0  0  0
    2.2480   -6.4630    1.6750 C   0  0  0  0  0  1  0  0  0  0  0  0
    1.1590   -4.3200    1.1620 C   0  0  0  0  0  0  0  0  0  0  0  0
    2.0970   -4.0690    0.4200 O   0  0  0  0  0  0  0  0  0  0  0  0
    0.2180   -2.0620    0.6360 C   0  0  2  0  0  3  0  0  0  0  0  0
    0.8940   -1.8710   -0.4780 O   0  0  0  0  0  0  0  0  0  0  0  0
    0.8260   -0.6290   -0.8620 N   0  0  0  0  0  0  0  0  0  0  0  0
    0.0920    0.0320    0.0510 C   0  0  0  0  0  0  0  0  0  0  0  0
    1.2500   -0.2320   -1.7000 H   0  0  0  0  0  0  0  0  0  0  0  0
   -0.1620    1.5000    0.0090 C   0  0  0  0  0  1  0  0  0  0  0  0
   -0.3260   -0.8510    1.0220 C   0  0  0  0  0  3  0  0  0  0  0  0
   -1.9230   -2.8030    2.3930 O   0  0  0  0  0  0  0  0  0  0  0  0
   -1.8990   -1.9740    1.9570 H   0  0  0  0  0  0  0  0  0  0  0  0
  1  2  2  0  0  0  0
  2 18  1  0  0  0  0
  2  3  1  0  0  0  0
  3  4  1  0  0  0  0
  5  3  1  0  0  0  0
  5  6  2  0  0  0  0
  7  5  1  0  0  0  0
  8  7  1  0  0  0  0
  9  1  1  0  0  0  0
  9  7  1  0  0  0  0
 10  9  2  0  0  0  0
 11 17  1  0  0  0  0
 11  1  1  1  0  0  0
 12 11  1  0  0  0  0
 13 12  1  0  0  0  0
 13 14  1  0  0  0  0
 14 17  2  0  0  0  0
 15 13  1  0  0  0  0
 16 14  1  0  0  0  0
 19 18  1  0  0  0  0
M  END
>  <REMARK>
  2 active torsions:
  status: ('A' for Active; 'I' for Inactive)
    1  A    between atoms: C_6  and  C_7 
    2  A    between atoms: C_8  and  O_9 

>  <TORSDO>
F 2

$$$$
C:\Users\siddh\.mgltools\PyRx\Ligands\ZINC000001402363_uff_E=361.13.pdbqt
 OpenBabel04182118313D

 20 21  0  0  1  0  0  0  0  0999 V2000
    0.0780   -3.2890   -1.6120 C   0  0  0  0  0  0  0  0  0  0  0  0
    0.0920   -3.2200   -3.0230 C   0  0  0  0  0  0  0  0  0  0  0  0
    0.0650   -4.3610   -3.7780 N   0  0  0  0  0  0  0  0  0  0  0  0
    0.0580   -4.2380   -5.2470 C   0  0  0  0  0  1  0  0  0  0  0  0
    0.0400   -5.6020   -3.1730 C   0  0  0  0  0  0  0  0  0  0  0  0
    0.0200   -6.6130   -3.8600 O   0  0  0  0  0  0  0  0  0  0  0  0
    0.0500   -5.7070   -1.7960 N   0  0  0  0  0  0  0  0  0  0  0  0
    0.0510   -7.0280   -1.1390 C   0  0  0  0  0  1  0  0  0  0  0  0
    0.0610   -4.5690   -1.0160 C   0  0  0  0  0  0  0  0  0  0  0  0
    0.0570   -4.6770    0.2010 O   0  0  0  0  0  0  0  0  0  0  0  0
    0.0590   -2.0510   -0.7490 C   0  0  1  0  0  3  0  0  0  0  0  0
    0.0990   -0.7160   -1.1450 C   0  0  0  0  0  3  0  0  0  0  0  0
    0.0120    0.0030    0.0240 C   0  0  0  0  0  0  0  0  0  0  0  0
   -0.0020    1.4920    0.1430 C   0  0  0  0  0  1  0  0  0  0  0  0
   -0.0680   -0.8490    1.0580 N   0  0  0  0  0  0  0  0  0  0  0  0
   -0.0380   -2.0900    0.6000 N   0  0  0  0  0  0  0  0  0  0  0  0
   -0.1440   -0.5980    2.0680 H   0  0  0  0  0  0  0  0  0  0  0  0
   -0.0810   -2.9350    1.1700 H   0  0  0  0  0  0  0  0  0  0  0  0
    0.1140   -2.0280   -3.6450 O   0  0  0  0  0  0  0  0  0  0  0  0
    0.1330   -1.2380   -3.1430 H   0  0  0  0  0  0  0  0  0  0  0  0
  1  9  1  0  0  0  0
  2  1  2  0  0  0  0
  3  5  1  0  0  0  0
  3  2  1  0  0  0  0
  4  3  1  0  0  0  0
  5  7  1  0  0  0  0
  6  5  2  0  0  0  0
  7  8  1  0  0  0  0
  7  9  1  0  0  0  0
  9 10  2  0  0  0  0
 11  1  1  6  0  0  0
 11 16  1  0  0  0  0
 12 11  1  0  0  0  0
 12 13  2  0  0  0  0
 13 14  1  0  0  0  0
 13 15  1  0  0  0  0
 15 17  1  0  0  0  0
 16 15  1  0  0  0  0
 16 18  1  0  0  0  0
 19 20  1  0  0  0  0
 19  2  1  0  0  0  0
M  END
>  <REMARK>
  2 active torsions:
  status: ('A' for Active; 'I' for Inactive)
    1  A    between atoms: C_4  and  C_5 
    2  A    between atoms: C_6  and  O_7 

>  <TORSDO>
F 2

$$$$
C:\Users\siddh\.mgltools\PyRx\Ligands\ZINC000001383620_uff_E=171.36.pdbqt
 OpenBabel04182118313D

 18 18  0  0  1  0  0  0  0  0999 V2000
    1.3560   -2.5210   -2.4170 C   0  0  0  0  0  0  0  0  0  0  0  0
    2.5280   -3.2920   -2.3400 C   0  0  0  0  0  0  0  0  0  0  0  0
    3.1870   -3.6700   -3.4790 N   0  0  0  0  0  0  0  0  0  0  0  0
    4.4160   -4.4760   -3.3800 C   0  0  0  0  0  1  0  0  0  0  0  0
    2.7010   -3.3040   -4.7210 C   0  0  0  0  0  0  0  0  0  0  0  0
    3.2960   -3.6500   -5.7310 O   0  0  0  0  0  0  0  0  0  0  0  0
    1.5500   -2.5460   -4.8260 N   0  0  0  0  0  0  0  0  0  0  0  0
    1.0250   -2.1290   -6.1390 C   0  0  0  0  0  1  0  0  0  0  0  0
    0.8770   -2.1570   -3.6910 C   0  0  0  0  0  0  0  0  0  0  0  0
   -0.1340   -1.4790   -3.7920 O   0  0  0  0  0  0  0  0  0  0  0  0
    0.6350   -2.0580   -1.1470 C   0  0  2  0  0  3  0  0  0  0  0  0
   -0.7850   -2.6440   -1.0810 C   0  0  0  0  0  1  0  0  0  0  0  0
    0.6240   -0.5400   -1.0590 C   0  0  0  0  0  0  0  0  0  0  0  0
    1.1780    0.1320   -1.9210 O   0  0  0  0  0  0  0  0  0  0  0  0
    0.0160    0.0750   -0.0130 O   0  0  0  0  0  0  0  0  0  0  0  0
   -0.0520    1.4510    0.0850 C   0  0  0  0  0  1  0  0  0  0  0  0
    3.0070   -3.6590   -1.1340 O   0  0  0  0  0  0  0  0  0  0  0  0
    2.5570   -3.4010   -0.3530 H   0  0  0  0  0  0  0  0  0  0  0  0
  1  2  2  0  0  0  0
  1 11  1  0  0  0  0
  2 17  1  0  0  0  0
  3  4  1  0  0  0  0
  3  2  1  0  0  0  0
  5  3  1  0  0  0  0
  6  5  2  0  0  0  0
  7  5  1  0  0  0  0
  7  9  1  0  0  0  0
  8  7  1  0  0  0  0
  9  1  1  0  0  0  0
 10  9  2  0  0  0  0
 11 12  1  6  0  0  0
 11 13  1  0  0  0  0
 13 15  1  0  0  0  0
 14 13  2  0  0  0  0
 15 16  1  0  0  0  0
 17 18  1  0  0  0  0
M  END
>  <REMARK>
  4 active torsions:
  status: ('A' for Active; 'I' for Inactive)
    1  A    between atoms: O_2  and  C_3 
    2  A    between atoms: C_3  and  C_5 
    3  A    between atoms: C_5  and  C_7 
    4  A    between atoms: C_8  and  O_9 

>  <TORSDO>
F 4

$$$$
C:\Users\siddh\.mgltools\PyRx\Ligands\ZINC000001287859_uff_E=383.51.pdbqt
 OpenBabel04182118313D

 19 19  0  0  0  0  0  0  0  0999 V2000
   -3.1480   -2.6320    0.1320 C   0  0  0  0  0  0  0  0  0  0  0  0
   -4.0450   -1.8100    0.0560 O   0  0  0  0  0  0  0  0  0  0  0  0
   -3.4290   -3.9650    0.2290 N   0  0  0  0  0  0  0  0  0  0  0  0
   -2.6400   -4.6270    0.2950 H   0  0  0  0  0  0  0  0  0  0  0  0
   -1.7140   -2.1560    0.1200 C   0  0  0  0  0  2  0  0  0  0  0  0
   -1.6570   -0.6280    0.0270 C   0  0  0  0  0  2  0  0  0  0  0  0
    0.1030    0.0000    0.0110 P   0  0  0  0  0  4  0  0  0  0  0  0
    0.0070    1.8730    0.0000 C   0  0  0  0  0  1  0  0  0  0  0  0
    0.9260   -0.5340    1.4520 O   0  0  0  0  0  0  0  0  0  0  0  0
    1.8390   -0.2070    1.4420 H   0  0  0  0  0  0  0  0  0  0  0  0
    0.9090   -0.5630   -1.4270 O   0  0  0  0  0  0  0  0  0  0  0  0
    1.8230   -0.2370   -1.4350 H   0  0  0  0  0  0  0  0  0  0  0  0
   -4.7320   -4.4820    0.2440 N   0  0  0  0  0  0  0  0  0  0  0  0
   -4.9850   -5.7740    0.3430 N   0  0  0  0  0  0  0  0  0  0  0  0
   -6.3260   -5.9050    0.3250 C   0  0  0  0  0  2  0  0  0  0  0  0
   -4.3000   -6.5260    0.4180 H   0  0  0  0  0  0  0  0  0  0  0  0
   -6.9370   -4.7070    0.2160 N   0  0  0  0  0  0  0  0  0  0  0  0
   -5.9170   -3.8330    0.1670 C   0  0  0  0  0  2  0  0  0  0  0  0
   -7.9370   -4.5110    0.1790 H   0  0  0  0  0  0  0  0  0  0  0  0
  1  3  1  0  0  0  0
  2  1  2  0  0  0  0
  3 13  1  0  0  0  0
  3  4  1  0  0  0  0
  5  1  1  0  0  0  0
  6  5  1  0  0  0  0
  7  6  1  0  0  0  0
  7  9  1  0  0  0  0
  8  7  1  0  0  0  0
 10  9  1  0  0  0  0
 11  7  1  0  0  0  0
 12 11  1  0  0  0  0
 13 14  1  0  0  0  0
 14 16  1  0  0  0  0
 15 14  1  0  0  0  0
 17 15  1  0  0  0  0
 18 17  1  0  0  0  0
 18 13  1  0  0  0  0
 19 17  1  0  0  0  0
M  END
>  <REMARK>
  6 active torsions:
  status: ('A' for Active; 'I' for Inactive)
    1  A    between atoms: P_2  and  O_3 
    2  A    between atoms: P_2  and  O_4 
    3  A    between atoms: P_2  and  C_5 
    4  A    between atoms: C_5  and  C_6 
    5  A    between atoms: C_6  and  C_7 
       I    between atoms: C_7  and  N_9 
    6  A    between atoms: N_9  and  N_10 

>  <TORSDO>
F 6

$$$$
C:\Users\siddh\.mgltools\PyRx\Ligands\ZINC000001191358_uff_E=190.49.pdbqt
 OpenBabel04182118313D

 17 18  0  0  1  0  0  0  0  0999 V2000
    1.3170    1.9230   -0.0230 C   0  0  0  0  0  2  0  0  0  0  0  0
   -0.0170    1.1950   -0.0170 C   0  0  0  0  0  0  0  0  0  0  0  0
   -0.0220   -0.0280   -0.0290 O   0  0  0  0  0  0  0  0  0  0  0  0
   -1.2070    1.8810    0.0310 N   0  0  0  0  0  0  0  0  0  0  0  0
   -2.4820    1.1740    0.0430 C   0  0  0  0  0  2  0  0  0  0  0  0
   -1.2870    3.3350    0.0440 C   0  0  0  0  0  2  0  0  0  0  0  0
   -3.3400    1.7310   -1.0980 C   0  0  0  0  0  2  0  0  0  0  0  0
   -3.4810    3.1380   -0.9720 O   0  0  0  0  0  0  0  0  0  0  0  0
   -2.2130    3.7640   -1.0990 C   0  0  0  0  0  2  0  0  0  0  0  0
    2.5230    0.9700   -0.0510 C   0  0  2  0  0  3  0  0  0  0  0  0
    3.8110    1.7410    0.0010 C   0  0  0  0  0  0  0  0  0  0  0  0
    4.6320    1.6000   -1.0450 N   0  0  0  0  0  0  0  0  0  0  0  0
    4.1080    2.4570    0.9450 O   0  0  0  0  0  0  0  0  0  0  0  0
    4.1590    0.7710   -1.9800 C   0  0  0  0  0  0  0  0  0  0  0  0
    5.4990    2.0610   -1.1200 H   0  0  0  0  0  0  0  0  0  0  0  0
    2.5740    0.0250   -1.6390 S   0  0  0  0  0  0  0  0  0  0  0  0
    4.7830    0.5380   -3.0010 O   0  0  0  0  0  0  0  0  0  0  0  0
  1  2  1  0  0  0  0
  2  4  1  0  0  0  0
  3  2  2  0  0  0  0
  4  5  1  0  0  0  0
  4  6  1  0  0  0  0
  7  8  1  0  0  0  0
  7  5  1  0  0  0  0
  9  8  1  0  0  0  0
  9  6  1  0  0  0  0
 10  1  1  6  0  0  0
 10 11  1  0  0  0  0
 11 13  2  0  0  0  0
 12 11  1  0  0  0  0
 14 16  1  0  0  0  0
 14 12  1  0  0  0  0
 15 12  1  0  0  0  0
 16 10  1  0  0  0  0
 17 14  2  0  0  0  0
M  END
>  <REMARK>
  2 active torsions:
  status: ('A' for Active; 'I' for Inactive)
    1  A    between atoms: C_2  and  C_3 
       I    between atoms: C_2  and  N_11 
    2  A    between atoms: C_3  and  C_4 

>  <TORSDO>
F 2

$$$$
C:\Users\siddh\.mgltools\PyRx\Ligands\ZINC000001047189_uff_E=658.28.pdbqt
 OpenBabel04182118313D

 17 17  0  0  0  0  0  0  0  0999 V2000
    0.0230    1.4620   -0.0420 C   0  0  0  0  0  1  0  0  0  0  0  0
    0.0090   -0.0040   -0.0420 N   0  0  0  0  0  0  0  0  0  0  0  0
    0.0090   -0.8030   -1.1380 C   0  0  0  0  0  0  0  0  0  0  0  0
   -0.0030   -2.1310   -0.7490 C   0  0  0  0  0  3  0  0  0  0  0  0
   -0.0020   -2.1420    0.6280 C   0  0  0  0  0  3  0  0  0  0  0  0
    0.0070   -0.8240    1.0370 C   0  0  0  0  0  0  0  0  0  0  0  0
    0.0770   -0.3330    2.7660 S   0  0  0  0  0  0  0  0  0  0  0  0
   -0.6160    0.9910    3.1260 O   0  0  0  0  0  0  0  0  0  0  0  0
   -0.6650   -1.3360    3.6620 O   0  0  0  0  0  0  0  0  0  0  0  0
    1.6970   -0.2540    3.4690 N   0  0  0  0  0  0  0  0  0  0  0  0
    2.3660   -0.0340    2.6970 H   0  0  0  0  0  0  0  0  0  0  0  0
    1.7300    0.5310    4.1560 H   0  0  0  0  0  0  0  0  0  0  0  0
    0.0260   -0.3560   -2.5500 C   0  0  0  0  0  3  0  0  0  0  0  0
    0.0550    0.9530   -2.8630 O   0  0  0  0  0  0  0  0  0  0  0  0
    0.0650    1.2200   -3.7610 H   0  0  0  0  0  0  0  0  0  0  0  0
    0.0210   -1.2680   -3.5400 O   0  0  0  0  0  0  0  0  0  0  0  0
    0.0010   -2.1820   -3.3350 H   0  0  0  0  0  0  0  0  0  0  0  0
  1  2  1  0  0  0  0
  2  6  1  0  0  0  0
  3  4  2  0  0  0  0
  3  2  1  0  0  0  0
  4  5  1  0  0  0  0
  5  6  2  0  0  0  0
  6  7  1  0  0  0  0
  7  8  2  0  0  0  0
  7 10  1  0  0  0  0
  7  9  2  0  0  0  0
 10 12  1  0  0  0  0
 11 10  1  0  0  0  0
 13  3  1  0  0  0  0
 14 13  1  0  0  0  0
 15 14  1  0  0  0  0
 16 17  1  0  0  0  0
 16 13  1  0  0  0  0
M  END
>  <REMARK>
  5 active torsions:
  status: ('A' for Active; 'I' for Inactive)
    1  A    between atoms: C_3  and  C_4 
    2  A    between atoms: C_4  and  O_5 
    3  A    between atoms: C_4  and  O_6 
    4  A    between atoms: C_9  and  S_10 
    5  A    between atoms: S_10  and  N_11 

>  <TORSDO>
F 5

$$$$
C:\Users\siddh\.mgltools\PyRx\Ligands\ZINC000001044169_uff_E=112.87.pdbqt
 OpenBabel04182118313D

 19 19  0  0  1  0  0  0  0  0999 V2000
    2.0040   -3.7950   -2.4520 C   0  0  2  0  0  3  0  0  0  0  0  0
    1.9980   -4.6540   -1.3990 N   0  0  0  0  0  0  0  0  0  0  0  0
    1.5100   -4.3920   -0.5430 H   0  0  0  0  0  0  0  0  0  0  0  0
    2.6180   -5.8350   -1.4630 N   0  0  0  0  0  0  0  0  0  0  0  0
    3.2790   -6.2140   -2.5960 C   0  0  0  0  0  0  0  0  0  0  0  0
    3.9430   -7.4840   -2.6660 S   0  0  0  0  0  0  0  0  0  0  0  0
    3.3090   -5.3830   -3.6660 N   0  0  0  0  0  0  0  0  0  0  0  0
    2.6820   -4.1700   -3.6190 C   0  0  0  0  0  0  0  0  0  0  0  0
    2.7230   -3.4310   -4.5870 O   0  0  0  0  0  0  0  0  0  0  0  0
    2.5880   -6.4630   -0.6270 H   0  0  0  0  0  0  0  0  0  0  0  0
    3.7860   -5.6560   -4.4840 H   0  0  0  0  0  0  0  0  0  0  0  0
    1.3530   -2.5310   -2.3640 N   0  0  0  0  0  0  0  0  0  0  0  0
    1.4170   -1.8960   -3.1740 H   0  0  0  0  0  0  0  0  0  0  0  0
    0.6660   -2.0830   -1.1590 C   0  0  2  0  0  3  0  0  0  0  0  0
   -0.7510   -2.6660   -1.1340 C   0  0  0  0  0  1  0  0  0  0  0  0
    0.6180   -0.5660   -1.0990 C   0  0  0  0  0  0  0  0  0  0  0  0
    1.1310    0.1010   -1.9880 O   0  0  0  0  0  0  0  0  0  0  0  0
    0.0270    0.0550   -0.0460 O   0  0  0  0  0  0  0  0  0  0  0  0
   -0.0350    1.4320    0.0430 C   0  0  0  0  0  1  0  0  0  0  0  0
  1 12  1  1  0  0  0
  1  2  1  0  0  0  0
  2  3  1  0  0  0  0
  4  2  1  0  0  0  0
  4 10  1  0  0  0  0
  5  4  1  0  0  0  0
  6  5  2  0  0  0  0
  7  8  1  0  0  0  0
  7  5  1  0  0  0  0
  8  1  1  0  0  0  0
  9  8  2  0  0  0  0
 11  7  1  0  0  0  0
 12 14  1  0  0  0  0
 13 12  1  0  0  0  0
 14 15  1  6  0  0  0
 14 16  1  0  0  0  0
 16 18  1  0  0  0  0
 17 16  2  0  0  0  0
 18 19  1  0  0  0  0
M  END
>  <REMARK>
  4 active torsions:
  status: ('A' for Active; 'I' for Inactive)
    1  A    between atoms: O_2  and  C_3 
    2  A    between atoms: C_3  and  C_5 
    3  A    between atoms: C_5  and  N_7 
    4  A    between atoms: N_7  and  C_8 

>  <TORSDO>
F 4

$$$$
C:\Users\siddh\.mgltools\PyRx\Ligands\ZINC000001023501_uff_E=298.07.pdbqt
 OpenBabel04182118313D

 18 18  0  0  1  0  0  0  0  0999 V2000
    1.5100   -2.3930    2.4910 C   0  0  1  0  0  3  0  0  0  0  0  0
    2.0610   -1.6260    3.4520 N   0  0  0  0  0  0  0  0  0  0  0  0
    2.0620   -0.6060    3.4880 H   0  0  0  0  0  0  0  0  0  0  0  0
    2.6010   -2.4450    4.3430 N   0  0  0  0  0  0  0  0  0  0  0  0
    2.3710   -3.7010    3.9110 C   0  0  2  0  0  3  0  0  0  0  0  0
    2.7510   -4.7770    4.5190 N   0  0  0  0  0  0  0  0  0  0  0  0
    2.5190   -5.6750    4.0950 H   0  0  0  0  0  0  0  0  0  0  0  0
    1.6900   -3.7030    2.7540 N   0  0  0  0  0  0  0  0  0  0  0  0
    1.3750   -4.5260    2.1910 H   0  0  0  0  0  0  0  0  0  0  0  0
    3.0790   -2.1860    5.1640 H   0  0  0  0  0  0  0  0  0  0  0  0
    0.8040   -1.8690    1.3090 C   0  0  0  0  0  0  0  0  0  0  0  0
    0.3390   -2.6560    0.4960 O   0  0  0  0  0  0  0  0  0  0  0  0
    0.6700   -0.5260    1.1210 O   0  0  0  0  0  0  0  0  0  0  0  0
    0.0110   -0.0080    0.0180 C   0  0  0  0  0  2  0  0  0  0  0  0
   -0.0020    1.5140    0.0390 C   0  0  0  0  0  1  0  0  0  0  0  0
    3.4530   -4.7820    5.7120 N   0  0  0  0  0  0  0  0  0  0  0  0
    3.7520   -3.7610    6.2590 O   0  0  0  0  0  0  0  0  0  0  0  0
    3.7650   -5.8220    6.2050 O   0  0  0  0  0  0  0  0  0  0  0  0
  1 11  1  1  0  0  0
  1  8  1  0  0  0  0
  1  2  1  0  0  0  0
  2  3  1  0  0  0  0
  2  4  1  0  0  0  0
  4 10  1  0  0  0  0
  5  4  1  0  0  0  0
  5  6  1  6  0  0  0
  6 16  1  0  0  0  0
  7  6  1  0  0  0  0
  8  5  1  0  0  0  0
  9  8  1  0  0  0  0
 12 11  2  0  0  0  0
 13 11  1  0  0  0  0
 14 15  1  0  0  0  0
 14 13  1  0  0  0  0
 16 18  2  0  0  0  0
 16 17  2  0  0  0  0
M  END
>  <REMARK>
  4 active torsions:
  status: ('A' for Active; 'I' for Inactive)
    1  A    between atoms: C_2  and  O_3 
    2  A    between atoms: O_3  and  C_4 
    3  A    between atoms: C_4  and  C_6 
       I    between atoms: C_10  and  N_11 
    4  A    between atoms: N_11  and  N_13 

>  <TORSDO>
F 4

$$$$
C:\Users\siddh\.mgltools\PyRx\Ligands\ZINC000000984850_uff_E=91.27.pdbqt
 OpenBabel04182118313D

 16 16  0  0  0  0  0  0  0  0999 V2000
    0.0420   -0.1130    0.0040 O   0  0  0  0  0  0  0  0  0  0  0  0
    0.0020    1.2350   -0.0010 C   0  0  0  0  0  3  0  0  0  0  0  0
    0.1170   -1.0470    0.0130 H   0  0  0  0  0  0  0  0  0  0  0  0
    1.1520    1.9330   -0.0060 O   0  0  0  0  0  0  0  0  0  0  0  0
    1.1310    2.8700   -0.0090 H   0  0  0  0  0  0  0  0  0  0  0  0
   -1.3120    1.9620   -0.0010 C   0  0  0  0  0  2  0  0  0  0  0  0
   -2.4310    1.0070    0.0220 N   0  0  0  0  0  0  0  0  0  0  0  0
   -2.9410    0.5420    1.2200 C   0  0  0  0  0  0  0  0  0  0  0  0
   -3.9680   -0.3660    1.2250 N   0  0  0  0  0  0  0  0  0  0  0  0
   -2.4790    0.9310    2.2820 O   0  0  0  0  0  0  0  0  0  0  0  0
   -4.4990   -0.8280    0.0490 C   0  0  0  0  0  0  0  0  0  0  0  0
   -4.3470   -0.7120    2.1360 H   0  0  0  0  0  0  0  0  0  0  0  0
   -3.9910   -0.3710   -1.1680 C   0  0  0  0  0  0  0  0  0  0  0  0
   -5.4100   -1.6370    0.0700 O   0  0  0  0  0  0  0  0  0  0  0  0
   -2.9480    0.5540   -1.1590 C   0  0  0  0  0  3  0  0  0  0  0  0
   -4.6950   -0.9980   -2.8350 Br  0  0  0  0  0  0  0  0  0  0  0  0
  1  3  1  0  0  0  0
  2  6  1  0  0  0  0
  2  1  1  0  0  0  0
  4  2  1  0  0  0  0
  5  4  1  0  0  0  0
  6  7  1  0  0  0  0
  7  8  1  0  0  0  0
  8  9  1  0  0  0  0
  8 10  2  0  0  0  0
  9 12  1  0  0  0  0
 11 14  2  0  0  0  0
 11  9  1  0  0  0  0
 13 15  2  0  0  0  0
 13 11  1  0  0  0  0
 15  7  1  0  0  0  0
 16 13  1  0  0  0  0
M  END
>  <REMARK>
  3 active torsions:
  status: ('A' for Active; 'I' for Inactive)
    1  A    between atoms: C_2  and  O_3 
    2  A    between atoms: C_2  and  C_4 
    3  A    between atoms: C_4  and  N_5 

>  <TORSDO>
F 3

$$$$
C:\Users\siddh\.mgltools\PyRx\Ligands\ZINC000000973279_uff_E=100.64.pdbqt
 OpenBabel04182118313D

 16 16  0  0  1  0  0  0  0  0999 V2000
   -2.5380   -3.3250    0.0070 C   0  0  2  0  0  3  0  0  0  0  0  0
   -3.6530   -2.5480    0.0180 N   0  0  0  0  0  0  0  0  0  0  0  0
   -3.5570   -1.5330    0.0200 H   0  0  0  0  0  0  0  0  0  0  0  0
   -4.8750   -3.0910    0.0270 N   0  0  0  0  0  0  0  0  0  0  0  0
   -5.0340   -4.4540    0.0260 C   0  0  0  0  0  0  0  0  0  0  0  0
   -6.1500   -4.9440    0.0340 O   0  0  0  0  0  0  0  0  0  0  0  0
   -3.9350   -5.2640    0.0150 N   0  0  0  0  0  0  0  0  0  0  0  0
   -2.6830   -4.7170    0.0050 C   0  0  0  0  0  0  0  0  0  0  0  0
   -1.7060   -5.4450   -0.0050 O   0  0  0  0  0  0  0  0  0  0  0  0
   -5.7130   -2.4680    0.0350 H   0  0  0  0  0  0  0  0  0  0  0  0
   -4.0450   -6.2420    0.0130 H   0  0  0  0  0  0  0  0  0  0  0  0
   -0.8820   -2.6030   -0.0050 S   0  0  0  0  0  0  0  0  0  0  0  0
   -1.2770   -0.8100    0.0100 C   0  0  0  0  0  2  0  0  0  0  0  0
    0.0030   -0.0030    0.0020 C   0  0  0  0  0  0  0  0  0  0  0  0
   -0.0390    1.4940    0.0100 C   0  0  0  0  0  1  0  0  0  0  0  0
    1.0900   -0.5650   -0.0110 O   0  0  0  0  0  0  0  0  0  0  0  0
  1 12  1  1  0  0  0
  1  2  1  0  0  0  0
  2  3  1  0  0  0  0
  2  4  1  0  0  0  0
  4 10  1  0  0  0  0
  5  4  1  0  0  0  0
  5  6  2  0  0  0  0
  7  5  1  0  0  0  0
  8  1  1  0  0  0  0
  8  7  1  0  0  0  0
  9  8  2  0  0  0  0
 11  7  1  0  0  0  0
 12 13  1  0  0  0  0
 14 13  1  0  0  0  0
 14 15  1  0  0  0  0
 16 14  2  0  0  0  0
M  END
>  <REMARK>
  3 active torsions:
  status: ('A' for Active; 'I' for Inactive)
    1  A    between atoms: C_2  and  C_4 
    2  A    between atoms: C_4  and  S_5 
    3  A    between atoms: S_5  and  C_6 

>  <TORSDO>
F 3

$$$$
C:\Users\siddh\.mgltools\PyRx\Ligands\ZINC000000967415_uff_E=628.17.pdbqt
 OpenBabel04182118313D

 24 25  0  0  0  0  0  0  0  0999 V2000
    0.6170   -2.0420   -1.0400 C   0  0  0  0  0  0  0  0  0  0  0  0
    1.5680   -2.8450   -0.4340 C   0  0  0  0  0  0  0  0  0  0  0  0
    1.1710   -4.1240   -0.5720 N   0  0  0  0  0  0  0  0  0  0  0  0
    1.6640   -4.9500   -0.2320 H   0  0  0  0  0  0  0  0  0  0  0  0
    0.0210   -4.1120   -1.2310 N   0  0  0  0  0  2  0  0  0  0  0  0
   -0.3370   -2.8690   -1.5230 N   0  0  0  0  0  0  0  0  0  0  0  0
   -1.5460   -2.5320   -2.2300 C   0  0  0  0  0  0  0  0  0  0  0  0
   -2.5090   -3.3820   -2.7200 C   0  0  0  0  0  0  0  0  0  0  0  0
   -3.4530   -2.6330   -3.3110 N   0  0  0  0  0  0  0  0  0  0  0  0
   -3.0660   -1.3940   -3.1740 O   0  0  0  0  0  0  0  0  0  0  0  0
   -4.3000   -2.9640   -3.7730 H   0  0  0  0  0  0  0  0  0  0  0  0
   -1.9350   -1.2810   -2.5340 N   0  0  0  0  0  0  0  0  0  0  0  0
   -1.4430   -0.4160   -2.3090 H   0  0  0  0  0  0  0  0  0  0  0  0
   -2.5560   -4.7940   -2.6460 N   0  0  0  0  0  0  0  0  0  0  0  0
   -3.3500   -5.3020   -3.0580 H   0  0  0  0  0  0  0  0  0  0  0  0
   -1.8140   -5.3320   -2.1830 H   0  0  0  0  0  0  0  0  0  0  0  0
    0.6240   -0.5390   -1.1250 C   0  0  0  0  0  2  0  0  0  0  0  0
   -0.0180   -0.0230    0.0200 O   0  0  0  0  0  0  0  0  0  0  0  0
   -0.0020    1.3850   -0.0210 C   0  0  0  0  0  1  0  0  0  0  0  0
    2.8080   -2.4480    0.2570 C   0  0  0  0  0  3  0  0  0  0  0  0
    3.1470   -1.1520    0.3800 O   0  0  0  0  0  0  0  0  0  0  0  0
    3.9380   -0.9140    0.8220 H   0  0  0  0  0  0  0  0  0  0  0  0
    3.6120   -3.3920    0.7790 O   0  0  0  0  0  0  0  0  0  0  0  0
    3.3850   -4.2970    0.6990 H   0  0  0  0  0  0  0  0  0  0  0  0
  1  2  2  0  0  0  0
  2 20  1  0  0  0  0
  3  2  1  0  0  0  0
  3  4  1  0  0  0  0
  5  3  1  0  0  0  0
  6  5  1  0  0  0  0
  6  1  1  0  0  0  0
  7  6  1  0  0  0  0
  8 14  1  0  0  0  0
  8  7  2  0  0  0  0
  9 10  1  0  0  0  0
  9  8  1  0  0  0  0
 10 12  1  0  0  0  0
 11  9  1  0  0  0  0
 12 13  1  0  0  0  0
 12  7  1  0  0  0  0
 14 16  1  0  0  0  0
 15 14  1  0  0  0  0
 17  1  1  0  0  0  0
 17 18  1  0  0  0  0
 19 18  1  0  0  0  0
 20 21  1  0  0  0  0
 20 23  1  0  0  0  0
 21 22  1  0  0  0  0
 24 23  1  0  0  0  0
M  END
>  <REMARK>
  7 active torsions:
  status: ('A' for Active; 'I' for Inactive)
    1  A    between atoms: O_2  and  C_3 
    2  A    between atoms: C_3  and  C_4 
    3  A    between atoms: C_5  and  C_6 
    4  A    between atoms: C_6  and  O_7 
    5  A    between atoms: C_6  and  O_8 
    6  A    between atoms: N_12  and  C_13 
    7  A    between atoms: C_19  and  N_20 

>  <TORSDO>
F 7

$$$$
C:\Users\siddh\.mgltools\PyRx\Ligands\ZINC000000967414_uff_E=584.05.pdbqt
 OpenBabel04182118313D

 22 23  0  0  0  0  0  0  0  0999 V2000
   -0.0180    1.5160    0.0300 C   0  0  0  0  0  1  0  0  0  0  0  0
   -0.0030    0.0150   -0.0030 C   0  0  0  0  0  0  0  0  0  0  0  0
    0.0080   -0.7920   -1.1250 C   0  0  0  0  0  0  0  0  0  0  0  0
    0.0260   -2.0730   -0.7070 N   0  0  0  0  0  0  0  0  0  0  0  0
    0.0340   -2.9020   -1.3010 H   0  0  0  0  0  0  0  0  0  0  0  0
    0.0320   -2.0550    0.6180 N   0  0  0  0  0  2  0  0  0  0  0  0
    0.0170   -0.8080    1.0680 N   0  0  0  0  0  0  0  0  0  0  0  0
    0.0270   -0.4610    2.4670 C   0  0  0  0  0  0  0  0  0  0  0  0
    0.0420   -1.3050    3.5520 C   0  0  0  0  0  0  0  0  0  0  0  0
    0.0440   -0.5470    4.6600 N   0  0  0  0  0  0  0  0  0  0  0  0
    0.0340    0.6910    4.2470 O   0  0  0  0  0  0  0  0  0  0  0  0
    0.0520   -0.8730    5.6260 H   0  0  0  0  0  0  0  0  0  0  0  0
    0.0260    0.7950    2.9460 N   0  0  0  0  0  0  0  0  0  0  0  0
    0.0200    1.6580    2.4010 H   0  0  0  0  0  0  0  0  0  0  0  0
    0.0530   -2.7190    3.5640 N   0  0  0  0  0  0  0  0  0  0  0  0
    0.0680   -3.2230    4.4600 H   0  0  0  0  0  0  0  0  0  0  0  0
    0.0530   -3.2630    2.6930 H   0  0  0  0  0  0  0  0  0  0  0  0
    0.0060   -0.3970   -2.5450 C   0  0  0  0  0  3  0  0  0  0  0  0
    0.0120    0.9010   -2.9020 O   0  0  0  0  0  0  0  0  0  0  0  0
    0.0110    1.1370   -3.8080 H   0  0  0  0  0  0  0  0  0  0  0  0
    0.0070   -1.3430   -3.5020 O   0  0  0  0  0  0  0  0  0  0  0  0
    0.0030   -2.2490   -3.2650 H   0  0  0  0  0  0  0  0  0  0  0  0
  2  1  1  0  0  0  0
  2  7  1  0  0  0  0
  3  4  1  0  0  0  0
  3  2  2  0  0  0  0
  4  6  1  0  0  0  0
  5  4  1  0  0  0  0
  6  7  1  0  0  0  0
  7  8  1  0  0  0  0
  8 13  1  0  0  0  0
  8  9  2  0  0  0  0
  9 15  1  0  0  0  0
  9 10  1  0  0  0  0
 10 12  1  0  0  0  0
 11 10  1  0  0  0  0
 13 11  1  0  0  0  0
 14 13  1  0  0  0  0
 15 16  1  0  0  0  0
 17 15  1  0  0  0  0
 18  3  1  0  0  0  0
 19 18  1  0  0  0  0
 20 19  1  0  0  0  0
 21 22  1  0  0  0  0
 21 18  1  0  0  0  0
M  END
>  <REMARK>
  5 active torsions:
  status: ('A' for Active; 'I' for Inactive)
    1  A    between atoms: C_3  and  C_4 
    2  A    between atoms: C_4  and  O_5 
    3  A    between atoms: C_4  and  O_6 
    4  A    between atoms: N_10  and  C_11 
    5  A    between atoms: C_17  and  N_18 

>  <TORSDO>
F 5

$$$$
C:\Users\siddh\.mgltools\PyRx\Ligands\ZINC000000897244_uff_E=1446.07.pdbqt
 OpenBabel04182118313D

 17 18  0  0  1  0  0  0  0  0999 V2000
    0.0080    1.5680   -0.0330 C   0  0  0  0  0  1  0  0  0  0  0  0
    0.0260    0.0350   -0.0350 C   0  0  0  0  0  0  0  0  0  0  0  0
   -1.4190   -0.5130    0.0030 C   0  0  0  0  0  1  0  0  0  0  0  0
    0.8490   -0.5720   -1.2250 C   0  0  1  0  0  3  0  0  0  0  0  0
    1.4200   -1.8410   -0.7500 N   0  0  0  0  0  0  0  0  0  0  0  0
    2.6920   -2.1270   -0.8820 C   0  0  0  0  0  0  0  0  0  0  0  0
    3.4570   -1.7060   -1.7360 O   0  0  0  0  0  0  0  0  0  0  0  0
    2.9610   -2.5800    0.5040 C   0  0  0  0  0  2  0  0  0  0  0  0
    1.3950   -2.2230    0.6350 C   0  0  1  0  0  3  0  0  0  0  0  0
    0.8960   -0.6690    1.3850 S   0  0  0  0  0  0  0  0  0  0  0  0
    2.0990    0.1610    1.8610 O   0  0  0  0  0  0  0  0  0  0  0  0
    0.0260   -0.8850    2.6330 O   0  0  0  0  0  0  0  0  0  0  0  0
    0.0700   -0.7220   -2.5050 C   0  0  0  0  0  3  0  0  0  0  0  0
   -0.3920    0.3720   -3.1400 O   0  0  0  0  0  0  0  0  0  0  0  0
   -0.8770    0.2820   -3.9370 H   0  0  0  0  0  0  0  0  0  0  0  0
   -0.1540   -1.9410   -3.0320 O   0  0  0  0  0  0  0  0  0  0  0  0
    0.1650   -2.7060   -2.5950 H   0  0  0  0  0  0  0  0  0  0  0  0
  2  1  1  0  0  0  0
  2  3  1  0  0  0  0
  2 10  1  0  0  0  0
  4 13  1  6  0  0  0
  4  5  1  0  0  0  0
  4  2  1  0  0  0  0
  5  9  1  0  0  0  0
  6  5  1  0  0  0  0
  6  8  1  0  0  0  0
  7  6  2  0  0  0  0
  9  8  1  1  0  0  0
  9 10  1  0  0  0  0
 10 11  2  0  0  0  0
 10 12  2  0  0  0  0
 14 13  1  0  0  0  0
 15 14  1  0  0  0  0
 16 17  1  0  0  0  0
 16 13  1  0  0  0  0
M  END
>  <REMARK>
  3 active torsions:
  status: ('A' for Active; 'I' for Inactive)
    1  A    between atoms: C_4  and  C_5 
    2  A    between atoms: C_5  and  O_6 
    3  A    between atoms: C_5  and  O_7 

>  <TORSDO>
F 3

$$$$
C:\Users\siddh\.mgltools\PyRx\Ligands\ZINC000000808044_uff_E=212.13.pdbqt
 OpenBabel04182118313D

 19 19  0  0  0  0  0  0  0  0999 V2000
   -0.0250    1.5270    0.3190 C   0  0  0  0  0  1  0  0  0  0  0  0
   -0.0300    0.0310   -0.0550 C   0  0  0  0  0  0  0  0  0  0  0  0
   -1.5140   -0.4090   -0.2180 C   0  0  0  0  0  1  0  0  0  0  0  0
    0.6440   -0.1140   -1.4260 C   0  0  0  0  0  0  0  0  0  0  0  0
    0.0930    0.3550   -2.4140 O   0  0  0  0  0  0  0  0  0  0  0  0
    1.8400   -0.7460   -1.5810 N   0  0  0  0  0  0  0  0  0  0  0  0
    2.6190   -1.2570   -0.4700 C   0  0  0  0  0  2  0  0  0  0  0  0
    2.1910   -0.6510    0.8640 C   0  0  0  0  0  2  0  0  0  0  0  0
    0.7380   -0.7330    0.9720 N   0  0  0  0  0  0  0  0  0  0  0  0
    0.1510   -1.4870    1.9810 C   0  0  0  0  0  0  0  0  0  0  0  0
   -1.0610   -1.5700    2.0740 O   0  0  0  0  0  0  0  0  0  0  0  0
    2.2110   -0.8820   -2.5330 H   0  0  0  0  0  0  0  0  0  0  0  0
    0.9770   -2.2190    3.0260 C   0  0  0  0  0  2  0  0  0  0  0  0
    0.0940   -2.9850    4.0270 C   0  0  0  0  0  2  0  0  0  0  0  0
    0.8840   -3.6790    5.0970 C   0  0  0  0  0  3  0  0  0  0  0  0
    2.2290   -3.5940    5.1330 O   0  0  0  0  0  0  0  0  0  0  0  0
    2.7080   -4.0340    5.8080 H   0  0  0  0  0  0  0  0  0  0  0  0
    0.2380   -4.3910    6.0380 O   0  0  0  0  0  0  0  0  0  0  0  0
   -0.6970   -4.4540    6.0190 H   0  0  0  0  0  0  0  0  0  0  0  0
  2  1  1  0  0  0  0
  2  9  1  0  0  0  0
  3  2  1  0  0  0  0
  4  2  1  0  0  0  0
  5  4  2  0  0  0  0
  6  4  1  0  0  0  0
  6  7  1  0  0  0  0
  7  8  1  0  0  0  0
  8  9  1  0  0  0  0
  9 10  1  0  0  0  0
 10 11  2  0  0  0  0
 10 13  1  0  0  0  0
 12  6  1  0  0  0  0
 13 14  1  0  0  0  0
 14 15  1  0  0  0  0
 15 16  1  0  0  0  0
 15 18  1  0  0  0  0
 16 17  1  0  0  0  0
 19 18  1  0  0  0  0
M  END
>  <REMARK>
  5 active torsions:
  status: ('A' for Active; 'I' for Inactive)
       I    between atoms: N_9  and  C_10 
    1  A    between atoms: C_10  and  C_12 
    2  A    between atoms: C_12  and  C_13 
    3  A    between atoms: C_13  and  C_14 
    4  A    between atoms: C_14  and  O_15 
    5  A    between atoms: C_14  and  O_16 

>  <TORSDO>
F 5

$$$$
C:\Users\siddh\.mgltools\PyRx\Ligands\ZINC000000497329_uff_E=106.45.pdbqt
 OpenBabel04182118313D

 17 17  0  0  0  0  0  0  0  0999 V2000
    2.1650   -4.1420   -3.9780 C   0  0  0  0  0  0  0  0  0  0  0  0
    2.1670   -5.5360   -4.1500 C   0  0  0  0  0  3  0  0  0  0  0  0
    2.6900   -6.1000   -5.2700 N   0  0  0  0  0  0  0  0  0  0  0  0
    3.2310   -5.3230   -6.2570 C   0  0  0  0  0  0  0  0  0  0  0  0
    3.6910   -5.8380   -7.2600 O   0  0  0  0  0  0  0  0  0  0  0  0
    3.2570   -3.9660   -6.1200 N   0  0  0  0  0  0  0  0  0  0  0  0
    2.7410   -3.3560   -5.0110 C   0  0  0  0  0  0  0  0  0  0  0  0
    2.7930   -2.1450   -4.9390 O   0  0  0  0  0  0  0  0  0  0  0  0
    2.6720   -7.1390   -5.3760 H   0  0  0  0  0  0  0  0  0  0  0  0
    3.6550   -3.4160   -6.8330 H   0  0  0  0  0  0  0  0  0  0  0  0
    1.5410   -3.6020   -2.7240 C   0  0  0  0  0  3  0  0  0  0  0  0
    1.3750   -2.2960   -2.4370 C   0  0  0  0  0  3  0  0  0  0  0  0
    0.7200   -1.8380   -1.2000 C   0  0  0  0  0  0  0  0  0  0  0  0
    0.3030   -2.6410   -0.3760 O   0  0  0  0  0  0  0  0  0  0  0  0
    0.5700   -0.5040   -1.0060 O   0  0  0  0  0  0  0  0  0  0  0  0
   -0.0680    0.0300    0.0910 C   0  0  0  0  0  2  0  0  0  0  0  0
   -0.0570    1.5470   -0.0000 C   0  0  0  0  0  1  0  0  0  0  0  0
  1 11  1  0  0  0  0
  2  1  2  0  0  0  0
  3  2  1  0  0  0  0
  4  6  1  0  0  0  0
  4  3  1  0  0  0  0
  5  4  2  0  0  0  0
  6  7  1  0  0  0  0
  7  8  2  0  0  0  0
  7  1  1  0  0  0  0
  9  3  1  0  0  0  0
 10  6  1  0  0  0  0
 11 12  2  0  0  0  0
 12 13  1  0  0  0  0
 13 15  1  0  0  0  0
 13 14  2  0  0  0  0
 15 16  1  0  0  0  0
 17 16  1  0  0  0  0
M  END
>  <REMARK>
  4 active torsions:
  status: ('A' for Active; 'I' for Inactive)
    1  A    between atoms: C_2  and  O_3 
    2  A    between atoms: O_3  and  C_4 
    3  A    between atoms: C_4  and  C_6 
    4  A    between atoms: C_7  and  C_8 

>  <TORSDO>
F 4

$$$$
C:\Users\siddh\.mgltools\PyRx\Ligands\ZINC000000486241_uff_E=114.95.pdbqt
 OpenBabel04182118313D

 17 17  0  0  0  0  0  0  0  0999 V2000
    0.6480   -2.0530   -1.1220 C   0  0  0  0  0  0  0  0  0  0  0  0
    1.2650   -2.6990   -2.2040 C   0  0  0  0  0  3  0  0  0  0  0  0
    1.3170   -4.0610   -2.2730 N   0  0  0  0  0  0  0  0  0  0  0  0
    0.7620   -4.8350   -1.2690 C   0  0  0  0  0  0  0  0  0  0  0  0
    0.8150   -6.0520   -1.3220 O   0  0  0  0  0  0  0  0  0  0  0  0
    0.1380   -4.2230   -0.1780 C   0  0  0  0  0  3  0  0  0  0  0  0
    0.0810   -2.8320   -0.1040 C   0  0  0  0  0  3  0  0  0  0  0  0
    2.0000   -4.6840   -3.4180 C   0  0  0  0  0  2  0  0  0  0  0  0
    3.4570   -4.8870   -3.1170 C   0  0  0  0  0  3  0  0  0  0  0  0
    3.9740   -4.5110   -1.9290 O   0  0  0  0  0  0  0  0  0  0  0  0
    4.8840   -4.6430   -1.7520 H   0  0  0  0  0  0  0  0  0  0  0  0
    4.2580   -5.4460   -4.0430 O   0  0  0  0  0  0  0  0  0  0  0  0
    3.9050   -5.7090   -4.8700 H   0  0  0  0  0  0  0  0  0  0  0  0
    0.6130   -0.5710   -1.0740 C   0  0  0  0  0  0  0  0  0  0  0  0
    1.1230    0.0750   -1.9810 O   0  0  0  0  0  0  0  0  0  0  0  0
    0.0210    0.0710   -0.0340 O   0  0  0  0  0  0  0  0  0  0  0  0
   -0.0340    1.4480    0.0400 C   0  0  0  0  0  1  0  0  0  0  0  0
  1 14  1  0  0  0  0
  1  7  1  0  0  0  0
  2  1  2  0  0  0  0
  3  2  1  0  0  0  0
  3  4  1  0  0  0  0
  4  6  1  0  0  0  0
  5  4  2  0  0  0  0
  6  7  2  0  0  0  0
  8  9  1  0  0  0  0
  8  3  1  0  0  0  0
  9 10  1  0  0  0  0
 10 11  1  0  0  0  0
 12  9  1  0  0  0  0
 13 12  1  0  0  0  0
 14 16  1  0  0  0  0
 15 14  2  0  0  0  0
 16 17  1  0  0  0  0
M  END
>  <REMARK>
  6 active torsions:
  status: ('A' for Active; 'I' for Inactive)
    1  A    between atoms: O_2  and  C_3 
    2  A    between atoms: C_3  and  C_5 
    3  A    between atoms: N_7  and  C_8 
    4  A    between atoms: C_8  and  C_9 
    5  A    between atoms: C_9  and  O_10 
    6  A    between atoms: C_9  and  O_11 

>  <TORSDO>
F 6

$$$$
C:\Users\siddh\.mgltools\PyRx\Ligands\ZINC000000481837_uff_E=218.34.pdbqt
 OpenBabel04182118313D

 16 16  0  0  1  0  0  0  0  0999 V2000
    2.1120   -0.0490   -1.2510 C   0  0  0  0  0  0  0  0  0  0  0  0
    2.7620    0.5490   -0.4050 O   0  0  0  0  0  0  0  0  0  0  0  0
    2.6870   -0.3720   -2.4410 N   0  0  0  0  0  0  0  0  0  0  0  0
    2.1130   -0.8320   -3.1640 H   0  0  0  0  0  0  0  0  0  0  0  0
    4.0710   -0.0200   -2.7300 C   0  0  1  0  0  3  0  0  0  0  0  0
    4.9710   -0.9830   -2.1000 C   0  0  0  0  0  0  0  0  0  0  0  0
    5.4780   -1.8330   -2.9850 N   0  0  0  0  0  0  0  0  0  0  0  0
    5.1760   -1.0780   -0.9010 O   0  0  0  0  0  0  0  0  0  0  0  0
    5.0360   -1.6360   -4.2410 O   0  0  0  0  0  0  0  0  0  0  0  0
    6.1170   -2.5420   -2.7450 H   0  0  0  0  0  0  0  0  0  0  0  0
    4.4820   -0.3270   -4.1870 C   0  0  0  0  0  2  0  0  0  0  0  0
    0.8020   -0.3650   -1.0260 O   0  0  0  0  0  0  0  0  0  0  0  0
    0.0360    0.0220    0.0750 C   0  0  0  0  0  0  0  0  0  0  0  0
   -0.0940    1.5590    0.1200 C   0  0  0  0  0  1  0  0  0  0  0  0
    0.6390   -0.5150    1.3920 C   0  0  0  0  0  1  0  0  0  0  0  0
   -1.3710   -0.5780   -0.0880 C   0  0  0  0  0  1  0  0  0  0  0  0
  1 12  1  0  0  0  0
  1  2  2  0  0  0  0
  3  1  1  0  0  0  0
  4  3  1  0  0  0  0
  5  3  1  6  0  0  0
  5  6  1  0  0  0  0
  6  8  2  0  0  0  0
  7 10  1  0  0  0  0
  7  6  1  0  0  0  0
  9 11  1  0  0  0  0
  9  7  1  0  0  0  0
 11  5  1  0  0  0  0
 12 13  1  0  0  0  0
 13 14  1  0  0  0  0
 13 15  1  0  0  0  0
 16 13  1  0  0  0  0
M  END
>  <REMARK>
  3 active torsions:
  status: ('A' for Active; 'I' for Inactive)
    1  A    between atoms: C_2  and  O_5 
    2  A    between atoms: O_5  and  C_6 
       I    between atoms: C_6  and  N_8 
    3  A    between atoms: N_8  and  C_9 

>  <TORSDO>
F 3

$$$$
C:\Users\siddh\.mgltools\PyRx\Ligands\ZINC000000407746_uff_E=238.74.pdbqt
 OpenBabel04182118313D

 18 19  0  0  1  0  0  0  0  0999 V2000
    0.0840   -0.0920   -0.0160 O   0  0  0  0  0  0  0  0  0  0  0  0
    0.0330    1.1260   -0.0170 C   0  0  0  0  0  0  0  0  0  0  0  0
   -1.1520    1.7580   -0.2380 N   0  0  0  0  0  0  0  0  0  0  0  0
   -1.2290    3.1230   -0.2300 C   0  0  0  0  0  0  0  0  0  0  0  0
   -2.3110    3.6420   -0.4240 O   0  0  0  0  0  0  0  0  0  0  0  0
   -0.0500    3.8870    0.0040 C   0  0  2  0  0  3  0  0  0  0  0  0
    1.1070    3.1960    0.2140 N   0  0  0  0  0  0  0  0  0  0  0  0
    1.9670    3.7190    0.3830 H   0  0  0  0  0  0  0  0  0  0  0  0
    1.1600    1.8640    0.2070 N   0  0  0  0  0  0  0  0  0  0  0  0
    2.0730    1.3870    0.3820 H   0  0  0  0  0  0  0  0  0  0  0  0
   -1.9640    1.2260   -0.4060 H   0  0  0  0  0  0  0  0  0  0  0  0
   -0.0220    5.3420    0.0790 N   0  0  0  0  0  0  0  0  0  0  0  0
    1.2650    6.0290    0.1810 C   0  0  0  0  0  2  0  0  0  0  0  0
    1.4170    7.2040   -0.8040 C   0  0  0  0  0  2  0  0  0  0  0  0
    0.8010    6.9730   -2.1960 C   0  0  0  0  0  2  0  0  0  0  0  0
   -0.7100    7.2950   -2.2200 C   0  0  0  0  0  2  0  0  0  0  0  0
   -1.6260    6.3200   -1.4700 C   0  0  0  0  0  2  0  0  0  0  0  0
   -1.2320    6.1450    0.0040 C   0  0  0  0  0  2  0  0  0  0  0  0
  2  1  2  0  0  0  0
  2  9  1  0  0  0  0
  3  4  1  0  0  0  0
  3  2  1  0  0  0  0
  4  6  1  0  0  0  0
  5  4  2  0  0  0  0
  6 12  1  1  0  0  0
  6  7  1  0  0  0  0
  7  8  1  0  0  0  0
  9  7  1  0  0  0  0
  9 10  1  0  0  0  0
 11  3  1  0  0  0  0
 12 13  1  0  0  0  0
 14 13  1  0  0  0  0
 15 14  1  0  0  0  0
 16 15  1  0  0  0  0
 16 17  1  0  0  0  0
 17 18  1  0  0  0  0
 18 12  1  0  0  0  0
M  END
>  <REMARK>
  1 active torsions:
  status: ('A' for Active; 'I' for Inactive)
    1  A    between atoms: C_6  and  N_7 

>  <TORSDO>
F 1

$$$$
C:\Users\siddh\.mgltools\PyRx\Ligands\ZINC000000405389_uff_E=172.45.pdbqt
 OpenBabel04182118313D

 18 18  0  0  0  0  0  0  0  0999 V2000
   -6.4180    2.3960    1.0850 C   0  0  0  0  0  0  0  0  0  0  0  0
   -7.2410    2.4460    1.9890 O   0  0  0  0  0  0  0  0  0  0  0  0
   -6.5950    1.5090    0.0740 N   0  0  0  0  0  0  0  0  0  0  0  0
   -5.9050    1.4480   -0.6920 H   0  0  0  0  0  0  0  0  0  0  0  0
   -5.2110    3.3050    1.1140 C   0  0  0  0  0  2  0  0  0  0  0  0
   -5.2590    4.3420    2.6250 S   0  0  0  0  0  0  0  0  0  0  0  0
   -3.6820    5.2210    2.3750 C   0  0  0  0  0  2  0  0  0  0  0  0
   -3.4350    6.1770    3.5100 C   0  0  0  0  0  3  0  0  0  0  0  0
   -4.3120    6.2900    4.5290 O   0  0  0  0  0  0  0  0  0  0  0  0
   -4.5740    7.1370    4.8330 H   0  0  0  0  0  0  0  0  0  0  0  0
   -2.3220    6.9350    3.5130 O   0  0  0  0  0  0  0  0  0  0  0  0
   -1.7060    6.8650    2.8100 H   0  0  0  0  0  0  0  0  0  0  0  0
   -7.6960    0.6530    0.1040 N   0  0  0  0  0  0  0  0  0  0  0  0
   -8.5190    0.8200   -1.1000 C   0  0  0  0  0  2  0  0  0  0  0  0
   -9.7120   -0.1420   -1.0000 C   0  0  0  0  0  2  0  0  0  0  0  0
   -9.2670   -1.4840   -0.8890 O   0  0  0  0  0  0  0  0  0  0  0  0
   -8.4830   -1.6380    0.2820 C   0  0  0  0  0  2  0  0  0  0  0  0
   -7.2450   -0.7370    0.2220 C   0  0  0  0  0  2  0  0  0  0  0  0
  1  5  1  0  0  0  0
  1  2  2  0  0  0  0
  3 13  1  0  0  0  0
  3  1  1  0  0  0  0
  4  3  1  0  0  0  0
  5  6  1  0  0  0  0
  7  6  1  0  0  0  0
  7  8  1  0  0  0  0
  8 11  1  0  0  0  0
  8  9  1  0  0  0  0
  9 10  1  0  0  0  0
 12 11  1  0  0  0  0
 13 18  1  0  0  0  0
 14 15  1  0  0  0  0
 14 13  1  0  0  0  0
 15 16  1  0  0  0  0
 16 17  1  0  0  0  0
 18 17  1  0  0  0  0
M  END
>  <REMARK>
  7 active torsions:
  status: ('A' for Active; 'I' for Inactive)
    1  A    between atoms: O_1  and  C_2 
    2  A    between atoms: C_2  and  O_3 
    3  A    between atoms: C_2  and  C_4 
    4  A    between atoms: C_4  and  S_5 
    5  A    between atoms: S_5  and  C_6 
    6  A    between atoms: C_6  and  C_7 
       I    between atoms: C_7  and  N_9 
    7  A    between atoms: N_9  and  N_10 

>  <TORSDO>
F 7

$$$$
C:\Users\siddh\.mgltools\PyRx\Ligands\ZINC000000405368_uff_E=938.16.pdbqt
 OpenBabel04182118313D

 18 20  0  0  1  0  0  0  0  0999 V2000
    0.1010   -0.0900    0.0160 O   0  0  0  0  0  0  0  0  0  0  0  0
    0.0560    1.2570    0.0290 C   0  0  0  0  0  3  0  0  0  0  0  0
    0.1860   -1.0230   -0.0080 H   0  0  0  0  0  0  0  0  0  0  0  0
    1.2030    1.9610    0.0300 O   0  0  0  0  0  0  0  0  0  0  0  0
    1.1790    2.8970    0.0390 H   0  0  0  0  0  0  0  0  0  0  0  0
   -1.2590    1.9820    0.0240 C   0  0  0  0  0  2  0  0  0  0  0  0
   -2.3670    1.0470    0.0050 N   0  0  0  0  0  0  0  0  0  0  0  0
   -2.9360    0.4720    1.0880 C   0  0  0  0  0  0  0  0  0  0  0  0
   -4.1970   -0.2030    0.6760 C   0  0  1  0  0  3  0  0  0  0  0  0
   -2.5640    0.6540    2.2380 O   0  0  0  0  0  0  0  0  0  0  0  0
   -3.7940   -0.6300   -0.7580 C   0  0  2  0  0  3  0  0  0  0  0  0
   -5.4610   -1.0480    0.9480 C   0  0  1  0  0  3  0  0  0  0  0  0
   -2.9660    0.5670   -1.1100 C   0  0  0  0  0  0  0  0  0  0  0  0
   -5.0810   -1.3330   -1.2720 C   0  0  2  0  0  3  0  0  0  0  0  0
   -2.6240    0.8690   -2.2430 O   0  0  0  0  0  0  0  0  0  0  0  0
   -6.1980   -0.7500   -0.4040 C   0  0  0  0  0  2  0  0  0  0  0  0
   -5.0420   -2.6860   -0.5850 C   0  0  0  0  0  2  0  0  0  0  0  0
   -5.2130   -2.5070    0.7200 C   0  0  0  0  0  2  0  0  0  0  0  0
  1  2  1  0  0  0  0
  2  4  1  0  0  0  0
  3  1  1  0  0  0  0
  4  5  1  0  0  0  0
  6  2  1  0  0  0  0
  7  6  1  0  0  0  0
  7  8  1  0  0  0  0
  8 10  2  0  0  0  0
  9 12  1  0  0  0  0
  9  8  1  1  0  0  0
 11 13  1  6  0  0  0
 11  9  1  0  0  0  0
 12 16  1  6  0  0  0
 13  7  1  0  0  0  0
 14 11  1  0  0  0  0
 14 17  1  1  0  0  0
 14 16  1  0  0  0  0
 15 13  2  0  0  0  0
 17 18  1  0  0  0  0
 18 12  1  0  0  0  0
M  END
>  <REMARK>
  3 active torsions:
  status: ('A' for Active; 'I' for Inactive)
    1  A    between atoms: C_2  and  O_3 
    2  A    between atoms: C_2  and  C_4 
    3  A    between atoms: C_4  and  N_5 

>  <TORSDO>
F 3

$$$$
C:\Users\siddh\.mgltools\PyRx\Ligands\ZINC000000394133_uff_E=502.90.pdbqt
 OpenBabel04182118313D

 21 21  0  0  0  0  0  0  0  0999 V2000
   -2.3090   -0.3660   -1.4040 C   0  0  0  0  0  0  0  0  0  0  0  0
   -3.2110    0.7050   -1.4260 C   0  0  0  0  0  3  0  0  0  0  0  0
   -3.8990    1.0200   -2.6050 C   0  0  0  0  0  3  0  0  0  0  0  0
   -3.6900    0.2690   -3.7710 C   0  0  0  0  0  0  0  0  0  0  0  0
   -2.7790   -0.8090   -3.7370 C   0  0  0  0  0  3  0  0  0  0  0  0
   -2.0960   -1.1190   -2.5610 C   0  0  0  0  0  3  0  0  0  0  0  0
   -1.4070   -0.7670    0.0940 S   0  0  0  0  0  0  0  0  0  0  0  0
   -1.0950   -2.2680    0.1930 O   0  0  0  0  0  0  0  0  0  0  0  0
   -2.2100   -0.5330    1.3820 O   0  0  0  0  0  0  0  0  0  0  0  0
    0.1540    0.0290    0.3500 N   0  0  0  0  0  0  0  0  0  0  0  0
    0.8410   -0.3710   -0.3310 H   0  0  0  0  0  0  0  0  0  0  0  0
    0.0010    1.4030    0.0900 N   0  0  0  0  0  0  0  0  0  0  0  0
    0.9440    1.8490    0.1630 H   0  0  0  0  0  0  0  0  0  0  0  0
   -0.3290    1.5360   -0.8940 H   0  0  0  0  0  0  0  0  0  0  0  0
   -4.3690    0.6020   -4.9040 O   0  0  0  0  0  0  0  0  0  0  0  0
   -4.2380   -0.0610   -6.1110 C   0  0  0  0  0  2  0  0  0  0  0  0
   -5.1090    0.5500   -7.1640 C   0  0  0  0  0  3  0  0  0  0  0  0
   -5.8890    1.6120   -6.8830 O   0  0  0  0  0  0  0  0  0  0  0  0
   -6.4300    1.9850   -7.5500 H   0  0  0  0  0  0  0  0  0  0  0  0
   -5.1100    0.0320   -8.4060 O   0  0  0  0  0  0  0  0  0  0  0  0
   -4.5690   -0.7070   -8.6070 H   0  0  0  0  0  0  0  0  0  0  0  0
  1  7  1  0  0  0  0
  2  1  1  0  0  0  0
  3  2  2  0  0  0  0
  4  5  2  0  0  0  0
  4  3  1  0  0  0  0
  5  6  1  0  0  0  0
  6  1  2  0  0  0  0
  7  8  2  0  0  0  0
  7 10  1  0  0  0  0
  7  9  2  0  0  0  0
 11 10  1  0  0  0  0
 12 13  1  0  0  0  0
 12 10  1  0  0  0  0
 14 12  1  0  0  0  0
 15  4  1  0  0  0  0
 16 15  1  0  0  0  0
 17 18  1  0  0  0  0
 17 16  1  0  0  0  0
 19 18  1  0  0  0  0
 20 17  1  0  0  0  0
 21 20  1  0  0  0  0
M  END
>  <REMARK>
  8 active torsions:
  status: ('A' for Active; 'I' for Inactive)
    1  A    between atoms: N_1  and  N_2 
    2  A    between atoms: N_2  and  S_3 
    3  A    between atoms: S_3  and  C_6 
    4  A    between atoms: C_9  and  O_10 
    5  A    between atoms: O_10  and  C_11 
    6  A    between atoms: C_11  and  C_12 
    7  A    between atoms: C_12  and  O_13 
    8  A    between atoms: C_12  and  O_14 

>  <TORSDO>
F 8

$$$$
C:\Users\siddh\.mgltools\PyRx\Ligands\ZINC000000386722_uff_E=131.22.pdbqt
 OpenBabel04182118313D

 18 18  0  0  0  0  0  0  0  0999 V2000
    0.0530    1.5420    0.0030 C   0  0  0  0  0  1  0  0  0  0  0  0
    0.0310    0.0380   -0.0020 C   0  0  0  0  0  0  0  0  0  0  0  0
    1.1010   -0.5530   -0.0230 O   0  0  0  0  0  0  0  0  0  0  0  0
   -1.1490   -0.6680    0.0210 N   0  0  0  0  0  0  0  0  0  0  0  0
   -2.4560   -0.0110    0.0370 C   0  0  0  0  0  2  0  0  0  0  0  0
   -3.2560   -0.4830   -1.1770 C   0  0  0  0  0  2  0  0  0  0  0  0
   -3.2670   -1.9440   -1.1860 N   0  0  0  0  0  0  0  0  0  0  0  0
   -4.4520   -2.6390   -1.1610 C   0  0  0  0  0  0  0  0  0  0  0  0
   -5.5150   -2.0330   -1.1420 O   0  0  0  0  0  0  0  0  0  0  0  0
   -1.9620   -2.6060   -1.2000 C   0  0  0  0  0  2  0  0  0  0  0  0
   -1.1550   -2.1300    0.0100 C   0  0  0  0  0  2  0  0  0  0  0  0
   -4.4720   -4.1510   -1.1610 C   0  0  0  0  0  2  0  0  0  0  0  0
   -5.8880   -4.7350   -1.1550 C   0  0  0  0  0  2  0  0  0  0  0  0
   -5.8770   -6.2380   -1.1610 C   0  0  0  0  0  3  0  0  0  0  0  0
   -4.7160   -6.9250   -1.1690 O   0  0  0  0  0  0  0  0  0  0  0  0
   -4.7260   -7.8620   -1.1730 H   0  0  0  0  0  0  0  0  0  0  0  0
   -7.0430   -6.9090   -1.1570 O   0  0  0  0  0  0  0  0  0  0  0  0
   -7.8530   -6.4390   -1.1510 H   0  0  0  0  0  0  0  0  0  0  0  0
  2  1  1  0  0  0  0
  2  4  1  0  0  0  0
  3  2  2  0  0  0  0
  4  5  1  0  0  0  0
  6  5  1  0  0  0  0
  7  6  1  0  0  0  0
  7  8  1  0  0  0  0
  8 12  1  0  0  0  0
  8  9  2  0  0  0  0
 10  7  1  0  0  0  0
 10 11  1  0  0  0  0
 11  4  1  0  0  0  0
 12 13  1  0  0  0  0
 14 17  1  0  0  0  0
 14 13  1  0  0  0  0
 15 14  1  0  0  0  0
 16 15  1  0  0  0  0
 17 18  1  0  0  0  0
M  END
>  <REMARK>
  5 active torsions:
  status: ('A' for Active; 'I' for Inactive)
       I    between atoms: C_2  and  N_4 
       I    between atoms: N_7  and  C_8 
    1  A    between atoms: C_8  and  C_10 
    2  A    between atoms: C_10  and  C_11 
    3  A    between atoms: C_11  and  C_12 
    4  A    between atoms: C_12  and  O_13 
    5  A    between atoms: C_12  and  O_14 

>  <TORSDO>
F 5

$$$$
C:\Users\siddh\.mgltools\PyRx\Ligands\ZINC000000374879_uff_E=152.86.pdbqt
 OpenBabel04182118313D

 21 21  0  0  1  0  0  0  0  0999 V2000
   -1.3890   -1.9490   -0.1460 N   0  0  0  0  0  0  0  0  0  0  0  0
   -2.4830   -2.6660   -0.5510 C   0  0  0  0  0  0  0  0  0  0  0  0
   -3.5260   -2.0800   -0.8030 O   0  0  0  0  0  0  0  0  0  0  0  0
   -0.4900   -2.4190    0.0010 H   0  0  0  0  0  0  0  0  0  0  0  0
   -1.4440   -0.5010    0.0310 C   0  0  2  0  0  3  0  0  0  0  0  0
    0.0000    0.0720    0.0560 C   0  0  1  0  0  3  0  0  0  0  0  0
    0.0660    1.6040    0.0270 C   0  0  0  0  0  1  0  0  0  0  0  0
    0.7480   -0.4420    1.1300 O   0  0  0  0  0  0  0  0  0  0  0  0
    0.3420   -0.1070    1.9710 H   0  0  0  0  0  0  0  0  0  0  0  0
   -2.2420   -0.1540    1.2760 C   0  0  0  0  0  3  0  0  0  0  0  0
   -2.5300    1.1280    1.5650 O   0  0  0  0  0  0  0  0  0  0  0  0
   -3.0230    1.3360    2.3350 H   0  0  0  0  0  0  0  0  0  0  0  0
   -2.6730   -1.1270    2.1050 O   0  0  0  0  0  0  0  0  0  0  0  0
   -2.4790   -2.0240    1.9160 H   0  0  0  0  0  0  0  0  0  0  0  0
   -2.4350   -4.1580   -0.7160 C   0  0  0  0  0  0  0  0  0  0  0  0
   -1.3180   -4.9340   -0.3380 C   0  0  0  0  0  2  0  0  0  0  0  0
   -1.3350   -6.2850   -0.4910 N   0  0  0  0  0  0  0  0  0  0  0  0
   -2.4090   -6.9340   -1.0100 C   0  0  0  0  0  3  0  0  0  0  0  0
   -0.5190   -6.8260   -0.2080 H   0  0  0  0  0  0  0  0  0  0  0  0
   -3.5340   -6.2150   -1.4040 C   0  0  0  0  0  3  0  0  0  0  0  0
   -3.5500   -4.8280   -1.2570 C   0  0  0  0  0  3  0  0  0  0  0  0
  1  4  1  0  0  0  0
  1  5  1  0  0  0  0
  2  1  1  0  0  0  0
  3  2  2  0  0  0  0
  5  6  1  0  0  0  0
  5 10  1  1  0  0  0
  6  7  1  1  0  0  0
  6  8  1  0  0  0  0
  8  9  1  0  0  0  0
 10 11  1  0  0  0  0
 10 13  1  0  0  0  0
 11 12  1  0  0  0  0
 14 13  1  0  0  0  0
 15  2  1  0  0  0  0
 15 16  1  0  0  0  0
 17 16  1  0  0  0  0
 17 19  1  0  0  0  0
 18 17  1  0  0  0  0
 20 21  1  0  0  0  0
 20 18  2  0  0  0  0
 21 15  2  0  0  0  0
M  END
>  <REMARK>
  7 active torsions:
  status: ('A' for Active; 'I' for Inactive)
    1  A    between atoms: C_2  and  O_3 
    2  A    between atoms: C_2  and  C_4 
    3  A    between atoms: C_4  and  N_5 
    4  A    between atoms: C_4  and  C_15 
       I    between atoms: N_5  and  C_6 
    5  A    between atoms: C_6  and  C_8 
    6  A    between atoms: C_15  and  O_16 
    7  A    between atoms: C_15  and  O_17 

>  <TORSDO>
F 7

$$$$
C:\Users\siddh\.mgltools\PyRx\Ligands\ZINC000000374873_uff_E=141.71.pdbqt
 OpenBabel04182118313D

 21 21  0  0  1  0  0  0  0  0999 V2000
    0.5490   -1.9180   -1.3350 N   0  0  0  0  0  0  0  0  0  0  0  0
    0.8140   -2.6110   -2.4840 C   0  0  0  0  0  0  0  0  0  0  0  0
    1.1480   -2.0030   -3.4900 O   0  0  0  0  0  0  0  0  0  0  0  0
    0.2040   -2.4130   -0.5060 H   0  0  0  0  0  0  0  0  0  0  0  0
    0.6870   -0.4680   -1.2520 C   0  0  1  0  0  3  0  0  0  0  0  0
    0.0490    0.0570    0.0610 C   0  0  2  0  0  3  0  0  0  0  0  0
    0.0090    1.5920    0.1230 C   0  0  0  0  0  1  0  0  0  0  0  0
    0.6660   -0.4870    1.2030 O   0  0  0  0  0  0  0  0  0  0  0  0
    1.5290   -0.0190    1.3430 H   0  0  0  0  0  0  0  0  0  0  0  0
    2.1430   -0.0760   -1.3760 C   0  0  0  0  0  3  0  0  0  0  0  0
    3.0640   -0.6010   -0.5430 O   0  0  0  0  0  0  0  0  0  0  0  0
    3.9640   -0.3540   -0.6250 H   0  0  0  0  0  0  0  0  0  0  0  0
    2.5290    0.7920   -2.3290 O   0  0  0  0  0  0  0  0  0  0  0  0
    1.8950    1.1610   -2.9120 H   0  0  0  0  0  0  0  0  0  0  0  0
    0.6780   -4.1070   -2.5520 C   0  0  0  0  0  0  0  0  0  0  0  0
    0.4610   -4.9070   -1.4070 C   0  0  0  0  0  2  0  0  0  0  0  0
    0.3560   -6.2580   -1.5220 N   0  0  0  0  0  0  0  0  0  0  0  0
    0.4500   -6.8860   -2.7220 C   0  0  0  0  0  3  0  0  0  0  0  0
    0.2030   -6.8160   -0.6820 H   0  0  0  0  0  0  0  0  0  0  0  0
    0.6620   -6.1440   -3.8810 C   0  0  0  0  0  3  0  0  0  0  0  0
    0.7790   -4.7560   -3.7980 C   0  0  0  0  0  3  0  0  0  0  0  0
  1  5  1  0  0  0  0
  1  4  1  0  0  0  0
  2  1  1  0  0  0  0
  3  2  2  0  0  0  0
  5 10  1  1  0  0  0
  5  6  1  0  0  0  0
  6  7  1  1  0  0  0
  6  8  1  0  0  0  0
  8  9  1  0  0  0  0
 10 11  1  0  0  0  0
 12 11  1  0  0  0  0
 13 10  1  0  0  0  0
 14 13  1  0  0  0  0
 15  2  1  0  0  0  0
 15 16  1  0  0  0  0
 17 16  1  0  0  0  0
 17 19  1  0  0  0  0
 18 17  1  0  0  0  0
 20 21  1  0  0  0  0
 20 18  2  0  0  0  0
 21 15  2  0  0  0  0
M  END
>  <REMARK>
  7 active torsions:
  status: ('A' for Active; 'I' for Inactive)
    1  A    between atoms: C_2  and  O_3 
    2  A    between atoms: C_2  and  C_4 
    3  A    between atoms: C_4  and  N_5 
    4  A    between atoms: C_4  and  C_15 
       I    between atoms: N_5  and  C_6 
    5  A    between atoms: C_6  and  C_8 
    6  A    between atoms: C_15  and  O_16 
    7  A    between atoms: C_15  and  O_17 

>  <TORSDO>
F 7

$$$$
C:\Users\siddh\.mgltools\PyRx\Ligands\ZINC000000351996_uff_E=339.87.pdbqt
 OpenBabel04182118313D

 20 21  0  0  0  0  0  0  0  0999 V2000
    0.0040    0.0070   -0.0010 C   0  0  0  0  0  0  0  0  0  0  0  0
   -1.2020   -0.7230    0.0040 C   0  0  0  0  0  3  0  0  0  0  0  0
   -1.1860   -2.1350   -0.0030 C   0  0  0  0  0  3  0  0  0  0  0  0
    0.0350   -2.8320   -0.0140 C   0  0  0  0  0  3  0  0  0  0  0  0
    1.2140   -2.0910   -0.0210 C   0  0  0  0  0  0  0  0  0  0  0  0
    1.2050   -0.7110   -0.0150 C   0  0  0  0  0  0  0  0  0  0  0  0
    2.6120   -0.2950   -0.0250 C   0  0  0  0  0  0  0  0  0  0  0  0
    3.0320    0.8520   -0.0120 O   0  0  0  0  0  0  0  0  0  0  0  0
    3.4050   -1.3910   -0.0390 N   0  0  0  0  0  0  0  0  0  0  0  0
    2.6200   -2.4940   -0.0330 C   0  0  0  0  0  0  0  0  0  0  0  0
    3.0420   -3.6410   -0.0280 O   0  0  0  0  0  0  0  0  0  0  0  0
    4.8560   -1.3790   -0.0220 C   0  0  0  0  0  2  0  0  0  0  0  0
    5.3670   -1.3740    1.3890 C   0  0  0  0  0  3  0  0  0  0  0  0
    4.5110   -1.3800    2.4300 O   0  0  0  0  0  0  0  0  0  0  0  0
    4.8410   -1.3770    3.3080 H   0  0  0  0  0  0  0  0  0  0  0  0
    6.6930   -1.3630    1.6180 O   0  0  0  0  0  0  0  0  0  0  0  0
    7.2930   -1.3590    0.8980 H   0  0  0  0  0  0  0  0  0  0  0  0
   -0.0160    1.4210    0.0080 N   0  0  0  0  0  0  0  0  0  0  0  0
    0.8560    1.9650    0.0050 H   0  0  0  0  0  0  0  0  0  0  0  0
   -0.9140    1.9250    0.0170 H   0  0  0  0  0  0  0  0  0  0  0  0
  1  2  1  0  0  0  0
  1 18  1  0  0  0  0
  3  2  2  0  0  0  0
  4  3  1  0  0  0  0
  5  6  1  0  0  0  0
  5  4  2  0  0  0  0
  6  1  2  0  0  0  0
  7  6  1  0  0  0  0
  7  8  2  0  0  0  0
  9 10  1  0  0  0  0
  9  7  1  0  0  0  0
  9 12  1  0  0  0  0
 10 11  2  0  0  0  0
 10  5  1  0  0  0  0
 12 13  1  0  0  0  0
 13 16  1  0  0  0  0
 13 14  1  0  0  0  0
 14 15  1  0  0  0  0
 17 16  1  0  0  0  0
 18 20  1  0  0  0  0
 19 18  1  0  0  0  0
M  END
>  <REMARK>
  5 active torsions:
  status: ('A' for Active; 'I' for Inactive)
    1  A    between atoms: N_1  and  C_2 
    2  A    between atoms: N_10  and  C_11 
    3  A    between atoms: C_11  and  C_12 
    4  A    between atoms: C_12  and  O_13 
    5  A    between atoms: C_12  and  O_14 

>  <TORSDO>
F 5

$$$$
C:\Users\siddh\.mgltools\PyRx\Ligands\ZINC000000339488_uff_E=104.70.pdbqt
 OpenBabel04182118313D

 20 21  0  0  1  0  0  0  0  0999 V2000
    0.0420    1.4860    0.0090 C   0  0  0  0  0  1  0  0  0  0  0  0
    0.0670    0.0420    0.0010 N   0  0  0  0  0  0  0  0  0  0  0  0
   -1.1460   -0.6880    0.0080 C   0  0  2  0  0  3  0  0  0  0  0  0
   -2.3280   -0.0190    0.0190 N   0  0  0  0  0  0  0  0  0  0  0  0
   -2.3250    1.0010    0.0220 H   0  0  0  0  0  0  0  0  0  0  0  0
   -3.5060   -0.6760    0.0260 C   0  0  0  0  0  0  0  0  0  0  0  0
   -3.5250   -2.0770    0.0230 C   0  0  0  0  0  0  0  0  0  0  0  0
   -4.7150   -2.7310    0.0310 N   0  0  0  0  0  0  0  0  0  0  0  0
   -4.7280   -3.7510    0.0290 H   0  0  0  0  0  0  0  0  0  0  0  0
   -5.8900   -2.0450    0.0420 C   0  0  1  0  0  3  0  0  0  0  0  0
   -7.1790   -2.7950    0.0510 C   0  0  0  0  0  1  0  0  0  0  0  0
   -5.8710   -0.6380    0.0450 C   0  0  0  0  0  0  0  0  0  0  0  0
   -6.9070    0.0020    0.0540 O   0  0  0  0  0  0  0  0  0  0  0  0
   -4.6700    0.0170    0.0370 N   0  0  0  0  0  0  0  0  0  0  0  0
   -2.3080   -2.7640    0.0120 C   0  0  0  0  0  0  0  0  0  0  0  0
   -2.2850   -3.9830    0.0090 O   0  0  0  0  0  0  0  0  0  0  0  0
   -1.1310   -2.0540    0.0040 N   0  0  0  0  0  0  0  0  0  0  0  0
    0.9700   -0.4550   -0.0090 H   0  0  0  0  0  0  0  0  0  0  0  0
   -0.2190   -2.5640   -0.0040 H   0  0  0  0  0  0  0  0  0  0  0  0
   -4.6520    1.0010    0.0390 H   0  0  0  0  0  0  0  0  0  0  0  0
  2  1  1  0  0  0  0
  3  2  1  1  0  0  0
  3  4  1  0  0  0  0
  4  5  1  0  0  0  0
  4  6  1  0  0  0  0
  6 14  1  0  0  0  0
  7  6  2  0  0  0  0
  7  8  1  0  0  0  0
  8 10  1  0  0  0  0
  9  8  1  0  0  0  0
 10 12  1  0  0  0  0
 10 11  1  1  0  0  0
 12 13  2  0  0  0  0
 14 20  1  0  0  0  0
 14 12  1  0  0  0  0
 15  7  1  0  0  0  0
 16 15  2  0  0  0  0
 17  3  1  0  0  0  0
 17 15  1  0  0  0  0
 18  2  1  0  0  0  0
 19 17  1  0  0  0  0
M  END
>  <REMARK>
  0 active torsions:
  status: ('A' for Active; 'I' for Inactive)
       I    between atoms: N_2  and  C_3 

>  <TORSDO>
F 0

$$$$
C:\Users\siddh\.mgltools\PyRx\Ligands\ZINC000000336994_uff_E=1447.66.pdbqt
 OpenBabel04182118313D

 17 18  0  0  1  0  0  0  0  0999 V2000
   -0.0600    1.5140    0.0710 C   0  0  0  0  0  1  0  0  0  0  0  0
   -0.0180   -0.0270   -0.0300 C   0  0  0  0  0  0  0  0  0  0  0  0
   -1.4420   -0.5930   -0.0910 C   0  0  0  0  0  1  0  0  0  0  0  0
    0.8900   -0.5050   -1.2130 C   0  0  2  0  0  3  0  0  0  0  0  0
    2.2690   -0.5560   -0.7040 N   0  0  0  0  0  0  0  0  0  0  0  0
    3.0330   -1.6060   -0.8780 C   0  0  0  0  0  0  0  0  0  0  0  0
    2.9950   -2.4000   -1.8040 O   0  0  0  0  0  0  0  0  0  0  0  0
    3.4930   -1.7820    0.5210 C   0  0  0  0  0  2  0  0  0  0  0  0
    2.5650   -0.4760    0.7010 C   0  0  2  0  0  3  0  0  0  0  0  0
    0.9160   -0.6360    1.3920 S   0  0  0  0  0  0  0  0  0  0  0  0
    0.7460    0.1920    2.6760 O   0  0  0  0  0  0  0  0  0  0  0  0
    0.5870   -2.0830    1.7900 O   0  0  0  0  0  0  0  0  0  0  0  0
    0.7560    0.3070   -2.4750 C   0  0  0  0  0  3  0  0  0  0  0  0
    1.8190    0.9530   -2.9920 O   0  0  0  0  0  0  0  0  0  0  0  0
    1.7260    1.4560   -3.7770 H   0  0  0  0  0  0  0  0  0  0  0  0
   -0.4310    0.3680   -3.1090 O   0  0  0  0  0  0  0  0  0  0  0  0
   -1.1750   -0.0790   -2.7550 H   0  0  0  0  0  0  0  0  0  0  0  0
  2  1  1  0  0  0  0
  2 10  1  0  0  0  0
  3  2  1  0  0  0  0
  4 13  1  6  0  0  0
  4  5  1  0  0  0  0
  4  2  1  0  0  0  0
  5  9  1  0  0  0  0
  6  5  1  0  0  0  0
  6  8  1  0  0  0  0
  7  6  2  0  0  0  0
  9  8  1  1  0  0  0
  9 10  1  0  0  0  0
 10 12  2  0  0  0  0
 10 11  2  0  0  0  0
 14 13  1  0  0  0  0
 15 14  1  0  0  0  0
 16 17  1  0  0  0  0
 16 13  1  0  0  0  0
M  END
>  <REMARK>
  3 active torsions:
  status: ('A' for Active; 'I' for Inactive)
    1  A    between atoms: C_4  and  C_5 
    2  A    between atoms: C_5  and  O_6 
    3  A    between atoms: C_5  and  O_7 

>  <TORSDO>
F 3

$$$$
C:\Users\siddh\.mgltools\PyRx\Ligands\ZINC000000299184_uff_E=596.58.pdbqt
 OpenBabel04182118313D

 17 19  0  0  1  0  0  0  0  0999 V2000
   -0.0420    1.4360   -0.0180 C   0  0  0  0  0  1  0  0  0  0  0  0
   -0.0200   -0.0140   -0.0600 N   0  0  0  0  0  0  0  0  0  0  0  0
   -1.2100   -0.8250   -0.0230 C   0  0  0  0  0  2  0  0  0  0  0  0
   -0.6340   -2.1960   -0.4040 C   0  0  1  0  0  0  0  0  0  0  0  0
   -1.3210   -3.4780   -0.1010 C   0  0  0  0  0  2  0  0  0  0  0  0
   -0.7630   -4.3470   -0.9060 C   0  0  0  0  0  2  0  0  0  0  0  0
    0.2370   -3.5720   -1.7210 C   0  0  1  0  0  3  0  0  0  0  0  0
   -0.4160   -2.3260   -1.8020 O   0  0  0  0  0  0  0  0  0  0  0  0
    1.4620   -3.1990   -0.8620 C   0  0  1  0  0  3  0  0  0  0  0  0
    0.8090   -2.2210    0.1370 C   0  0  1  0  0  3  0  0  0  0  0  0
    1.1010   -0.7640   -0.0110 C   0  0  0  0  0  0  0  0  0  0  0  0
    2.2240   -0.2880    0.0490 O   0  0  0  0  0  0  0  0  0  0  0  0
    2.1180   -4.4070   -0.2340 C   0  0  0  0  0  3  0  0  0  0  0  0
    2.6540   -5.3600   -1.0190 O   0  0  0  0  0  0  0  0  0  0  0  0
    3.0610   -6.1100   -0.6340 H   0  0  0  0  0  0  0  0  0  0  0  0
    2.1640   -4.5520    1.1060 O   0  0  0  0  0  0  0  0  0  0  0  0
    1.7930   -3.8940    1.6610 H   0  0  0  0  0  0  0  0  0  0  0  0
  2  3  1  0  0  0  0
  2  1  1  0  0  0  0
  2 11  1  0  0  0  0
  4  5  1  1  0  0  0
  4  3  1  0  0  0  0
  4 10  1  0  0  0  0
  6  5  1  0  0  0  0
  7  6  1  1  0  0  0
  7  9  1  0  0  0  0
  8  7  1  0  0  0  0
  8  4  1  0  0  0  0
  9 13  1  1  0  0  0
  9 10  1  0  0  0  0
 10 11  1  6  0  0  0
 11 12  2  0  0  0  0
 13 16  1  0  0  0  0
 14 15  1  0  0  0  0
 14 13  1  0  0  0  0
 16 17  1  0  0  0  0
M  END
>  <REMARK>
  3 active torsions:
  status: ('A' for Active; 'I' for Inactive)
    1  A    between atoms: C_9  and  C_10 
    2  A    between atoms: C_10  and  O_11 
    3  A    between atoms: C_10  and  O_12 

>  <TORSDO>
F 3

$$$$
C:\Users\siddh\.mgltools\PyRx\Ligands\ZINC000000294713_uff_E=273.71.pdbqt
 OpenBabel04182118313D

 21 21  0  0  1  0  0  0  0  0999 V2000
   -1.0020   -2.2910   -0.0160 C   0  0  2  0  0  3  0  0  0  0  0  0
   -1.2580   -0.7710    0.0220 C   0  0  0  0  0  2  0  0  0  0  0  0
    0.0250    0.0360    0.0020 C   0  0  0  0  0  0  0  0  0  0  0  0
   -0.0280    1.3870    0.0120 N   0  0  0  0  0  0  0  0  0  0  0  0
    0.8420    1.9400    0.0010 H   0  0  0  0  0  0  0  0  0  0  0  0
   -0.9340    1.8750    0.0280 H   0  0  0  0  0  0  0  0  0  0  0  0
    1.1130   -0.5220   -0.0180 O   0  0  0  0  0  0  0  0  0  0  0  0
   -0.3280   -2.6590   -1.2570 N   0  0  0  0  0  0  0  0  0  0  0  0
    0.4500   -3.7740   -1.3440 C   0  0  0  0  0  0  0  0  0  0  0  0
    0.6040   -4.4980   -0.3720 O   0  0  0  0  0  0  0  0  0  0  0  0
   -0.4150   -2.0400   -2.0780 H   0  0  0  0  0  0  0  0  0  0  0  0
    1.1260   -4.1120   -2.6110 C   0  0  0  0  0  0  0  0  0  0  0  0
    1.0110   -3.4300   -3.7270 O   0  0  0  0  0  0  0  0  0  0  0  0
    1.7340   -4.0110   -4.6590 C   0  0  0  0  0  3  0  0  0  0  0  0
    2.3530   -5.1260   -4.1280 C   0  0  0  0  0  3  0  0  0  0  0  0
    1.9630   -5.1910   -2.8110 C   0  0  0  0  0  3  0  0  0  0  0  0
   -2.2940   -3.0570    0.1270 C   0  0  0  0  0  3  0  0  0  0  0  0
   -2.7250   -3.8720   -0.8570 O   0  0  0  0  0  0  0  0  0  0  0  0
   -3.5290   -4.3430   -0.7570 H   0  0  0  0  0  0  0  0  0  0  0  0
   -3.0270   -2.9310    1.2500 O   0  0  0  0  0  0  0  0  0  0  0  0
   -2.7350   -2.3670    1.9390 H   0  0  0  0  0  0  0  0  0  0  0  0
  1  2  1  6  0  0  0
  1 17  1  0  0  0  0
  3  4  1  0  0  0  0
  3  2  1  0  0  0  0
  4  6  1  0  0  0  0
  5  4  1  0  0  0  0
  7  3  2  0  0  0  0
  8  1  1  0  0  0  0
  9  8  1  0  0  0  0
  9 10  2  0  0  0  0
 11  8  1  0  0  0  0
 12  9  1  0  0  0  0
 13 12  1  0  0  0  0
 14 15  2  0  0  0  0
 14 13  1  0  0  0  0
 15 16  1  0  0  0  0
 16 12  2  0  0  0  0
 17 20  1  0  0  0  0
 18 19  1  0  0  0  0
 18 17  1  0  0  0  0
 20 21  1  0  0  0  0
M  END
>  <REMARK>
  7 active torsions:
  status: ('A' for Active; 'I' for Inactive)
       I    between atoms: N_1  and  C_2 
    1  A    between atoms: C_2  and  C_4 
    2  A    between atoms: C_4  and  C_5 
    3  A    between atoms: C_5  and  N_6 
    4  A    between atoms: C_5  and  C_14 
       I    between atoms: N_6  and  C_7 
    5  A    between atoms: C_7  and  C_9 
    6  A    between atoms: C_14  and  O_15 
    7  A    between atoms: C_14  and  O_16 

>  <TORSDO>
F 7

$$$$
C:\Users\siddh\.mgltools\PyRx\Ligands\ZINC000000264926_uff_E=335.12.pdbqt
 OpenBabel04182118313D

 18 19  0  0  0  0  0  0  0  0999 V2000
    0.0350   -0.1260    0.0000 O   0  0  0  0  0  0  0  0  0  0  0  0
   -0.0160    1.2210    0.0050 C   0  0  0  0  0  3  0  0  0  0  0  0
    0.1320   -1.0580   -0.0090 H   0  0  0  0  0  0  0  0  0  0  0  0
    1.1290    1.9280    0.0030 O   0  0  0  0  0  0  0  0  0  0  0  0
    1.1020    2.8650    0.0060 H   0  0  0  0  0  0  0  0  0  0  0  0
   -1.3360    1.9410    0.0150 C   0  0  0  0  0  2  0  0  0  0  0  0
   -2.4400    0.9960    0.0200 N   0  0  0  0  0  0  0  0  0  0  0  0
   -3.0260    0.4720    1.1240 C   0  0  0  0  0  0  0  0  0  0  0  0
   -4.0780   -0.4560    0.7180 C   0  0  0  0  0  0  0  0  0  0  0  0
   -2.7010    0.7370    2.2710 O   0  0  0  0  0  0  0  0  0  0  0  0
   -4.0890   -0.4590   -0.6550 C   0  0  0  0  0  0  0  0  0  0  0  0
   -4.9630   -1.2460    1.4390 C   0  0  0  0  0  2  0  0  0  0  0  0
   -3.0400    0.4690   -1.0760 C   0  0  0  0  0  0  0  0  0  0  0  0
   -4.9820   -1.2500   -1.3680 C   0  0  0  0  0  3  0  0  0  0  0  0
   -2.7310    0.7330   -2.2270 O   0  0  0  0  0  0  0  0  0  0  0  0
   -5.8770   -2.0440   -0.6260 C   0  0  0  0  0  3  0  0  0  0  0  0
   -5.8480   -2.0260    0.7470 N   0  0  0  0  0  0  0  0  0  0  0  0
   -6.5050   -2.6100    1.2650 H   0  0  0  0  0  0  0  0  0  0  0  0
  1  2  1  0  0  0  0
  2  6  1  0  0  0  0
  3  1  1  0  0  0  0
  4  2  1  0  0  0  0
  4  5  1  0  0  0  0
  6  7  1  0  0  0  0
  7  8  1  0  0  0  0
  8 10  2  0  0  0  0
  9  8  1  0  0  0  0
  9 12  1  0  0  0  0
 11  9  2  0  0  0  0
 13 11  1  0  0  0  0
 13  7  1  0  0  0  0
 14 11  1  0  0  0  0
 14 16  2  0  0  0  0
 15 13  2  0  0  0  0
 16 17  1  0  0  0  0
 17 18  1  0  0  0  0
 17 12  1  0  0  0  0
M  END
>  <REMARK>
  3 active torsions:
  status: ('A' for Active; 'I' for Inactive)
    1  A    between atoms: C_2  and  O_3 
    2  A    between atoms: C_2  and  C_4 
    3  A    between atoms: C_4  and  N_5 

>  <TORSDO>
F 3

$$$$
C:\Users\siddh\.mgltools\PyRx\Ligands\ZINC000000248558_uff_E=331.24.pdbqt
 OpenBabel04182118313D

 18 19  0  0  0  0  0  0  0  0999 V2000
    0.0330   -0.1140    0.0030 O   0  0  0  0  0  0  0  0  0  0  0  0
   -0.0010    1.2340    0.0140 C   0  0  0  0  0  3  0  0  0  0  0  0
    0.0980   -1.0490   -0.0170 H   0  0  0  0  0  0  0  0  0  0  0  0
    1.1500    1.9280    0.0020 O   0  0  0  0  0  0  0  0  0  0  0  0
    1.1330    2.8650    0.0090 H   0  0  0  0  0  0  0  0  0  0  0  0
   -1.3120    1.9650    0.0360 C   0  0  0  0  0  2  0  0  0  0  0  0
   -2.4310    1.0080    0.0370 N   0  0  0  0  0  0  0  0  0  0  0  0
   -2.9500    0.5380    1.2350 C   0  0  0  0  0  0  0  0  0  0  0  0
   -3.9860   -0.3780    1.1920 C   0  0  0  0  0  0  0  0  0  0  0  0
   -2.5040    0.9130    2.3080 O   0  0  0  0  0  0  0  0  0  0  0  0
   -4.4920   -0.8210   -0.0130 C   0  0  0  0  0  0  0  0  0  0  0  0
   -4.8320   -1.1360    2.3970 S   0  0  0  0  0  0  0  0  0  0  0  0
   -3.9830   -0.3690   -1.1840 N   0  0  0  0  0  0  0  0  0  0  0  0
   -5.5510   -1.7590    0.1130 C   0  0  0  0  0  3  0  0  0  0  0  0
   -2.9510    0.5440   -1.1720 C   0  0  0  0  0  0  0  0  0  0  0  0
   -4.3680   -0.7140   -2.0920 H   0  0  0  0  0  0  0  0  0  0  0  0
   -2.4920    0.9380   -2.2320 O   0  0  0  0  0  0  0  0  0  0  0  0
   -5.8660   -2.0440    1.4500 C   0  0  0  0  0  3  0  0  0  0  0  0
  1  2  1  0  0  0  0
  2  6  1  0  0  0  0
  3  1  1  0  0  0  0
  4  5  1  0  0  0  0
  4  2  1  0  0  0  0
  6  7  1  0  0  0  0
  7  8  1  0  0  0  0
  8 10  2  0  0  0  0
  9  8  1  0  0  0  0
  9 12  1  0  0  0  0
 11 14  1  0  0  0  0
 11  9  2  0  0  0  0
 13 15  1  0  0  0  0
 13 11  1  0  0  0  0
 14 18  2  0  0  0  0
 15  7  1  0  0  0  0
 16 13  1  0  0  0  0
 17 15  2  0  0  0  0
 18 12  1  0  0  0  0
M  END
>  <REMARK>
  3 active torsions:
  status: ('A' for Active; 'I' for Inactive)
    1  A    between atoms: C_2  and  O_3 
    2  A    between atoms: C_2  and  C_4 
    3  A    between atoms: C_4  and  N_5 

>  <TORSDO>
F 3

$$$$
C:\Users\siddh\.mgltools\PyRx\Ligands\ZINC000000236718_uff_E=481.52.pdbqt
 OpenBabel04182118313D

 17 17  0  0  1  0  0  0  0  0999 V2000
    0.9210   -0.7680   -3.8570 S   0  0  0  0  0  0  0  0  0  0  0  0
    2.3520   -0.2080   -3.8490 O   0  0  0  0  0  0  0  0  0  0  0  0
    1.1210   -2.2840   -3.7110 O   0  0  0  0  0  0  0  0  0  0  0  0
    0.2040   -0.2350   -2.3550 N   0  0  0  0  0  0  0  0  0  0  0  0
    0.7280   -0.5280   -1.1450 C   0  0  0  0  0  0  0  0  0  0  0  0
    1.7410   -1.2040   -1.0560 O   0  0  0  0  0  0  0  0  0  0  0  0
   -0.6200    0.3020   -2.3920 H   0  0  0  0  0  0  0  0  0  0  0  0
    0.0410   -0.0020    0.0870 C   0  0  2  0  0  3  0  0  0  0  0  0
   -0.0200    1.5300    0.0630 C   0  0  0  0  0  1  0  0  0  0  0  0
    0.6730   -0.4530    1.2590 O   0  0  0  0  0  0  0  0  0  0  0  0
    1.6070   -0.1140    1.2490 H   0  0  0  0  0  0  0  0  0  0  0  0
   -0.0430   -0.2870   -5.2720 C   0  0  0  0  0  0  0  0  0  0  0  0
    0.1800    0.9540   -5.8770 C   0  0  0  0  0  3  0  0  0  0  0  0
   -0.6000    1.3470   -6.9670 C   0  0  0  0  0  3  0  0  0  0  0  0
   -1.6050    0.5010   -7.4490 C   0  0  0  0  0  3  0  0  0  0  0  0
   -1.8300   -0.7380   -6.8390 C   0  0  0  0  0  3  0  0  0  0  0  0
   -1.0500   -1.1310   -5.7490 C   0  0  0  0  0  3  0  0  0  0  0  0
  1  2  2  0  0  0  0
  1  3  2  0  0  0  0
  1  4  1  0  0  0  0
  4  5  1  0  0  0  0
  5  6  2  0  0  0  0
  5  8  1  0  0  0  0
  7  4  1  0  0  0  0
  8  9  1  6  0  0  0
  8 10  1  0  0  0  0
 11 10  1  0  0  0  0
 12  1  1  0  0  0  0
 13 12  2  0  0  0  0
 14 13  1  0  0  0  0
 15 14  2  0  0  0  0
 15 16  1  0  0  0  0
 16 17  2  0  0  0  0
 17 12  1  0  0  0  0
M  END
>  <REMARK>
  4 active torsions:
  status: ('A' for Active; 'I' for Inactive)
    1  A    between atoms: C_2  and  O_3 
    2  A    between atoms: C_2  and  C_4 
       I    between atoms: C_4  and  N_6 
    3  A    between atoms: N_6  and  S_7 
    4  A    between atoms: S_7  and  C_10 

>  <TORSDO>
F 4

$$$$
C:\Users\siddh\.mgltools\PyRx\Ligands\ZINC000000204072_uff_E=183.96.pdbqt
 OpenBabel04182118313D

 16 16  0  0  0  0  0  0  0  0999 V2000
    0.1260   -0.0830   -0.0000 O   0  0  0  0  0  0  0  0  0  0  0  0
    0.0020    1.2610    0.0070 C   0  0  0  0  0  3  0  0  0  0  0  0
    0.3580   -0.9910   -0.0140 H   0  0  0  0  0  0  0  0  0  0  0  0
    1.1100    2.0250    0.0060 O   0  0  0  0  0  0  0  0  0  0  0  0
    1.0350    2.9580    0.0110 H   0  0  0  0  0  0  0  0  0  0  0  0
   -1.3540    1.9130    0.0160 C   0  0  0  0  0  2  0  0  0  0  0  0
   -2.6550    0.6340    0.0070 S   0  0  0  0  0  0  0  0  0  0  0  0
   -4.1030    1.7550    0.0080 C   0  0  0  0  0  2  0  0  0  0  0  0
   -5.3900    0.9460    0.0060 C   0  0  0  0  0  0  0  0  0  0  0  0
   -5.3120   -0.2740   -0.0170 O   0  0  0  0  0  0  0  0  0  0  0  0
   -6.6280    1.5450    0.0540 N   0  0  0  0  0  0  0  0  0  0  0  0
   -7.8490    0.7480    0.0660 C   0  0  0  0  0  2  0  0  0  0  0  0
   -6.8140    2.9880    0.0690 C   0  0  0  0  0  2  0  0  0  0  0  0
   -8.7460    1.2380   -1.0760 C   0  0  0  0  0  2  0  0  0  0  0  0
   -8.9890    2.6310   -0.9510 O   0  0  0  0  0  0  0  0  0  0  0  0
   -7.7700    3.3490   -1.0760 C   0  0  0  0  0  2  0  0  0  0  0  0
  1  2  1  0  0  0  0
  2  6  1  0  0  0  0
  3  1  1  0  0  0  0
  4  2  1  0  0  0  0
  4  5  1  0  0  0  0
  7  8  1  0  0  0  0
  7  6  1  0  0  0  0
  9  8  1  0  0  0  0
  9 11  1  0  0  0  0
 10  9  2  0  0  0  0
 11 12  1  0  0  0  0
 11 13  1  0  0  0  0
 14 15  1  0  0  0  0
 14 12  1  0  0  0  0
 16 15  1  0  0  0  0
 16 13  1  0  0  0  0
M  END
>  <REMARK>
  5 active torsions:
  status: ('A' for Active; 'I' for Inactive)
    1  A    between atoms: C_2  and  O_3 
    2  A    between atoms: C_2  and  C_4 
    3  A    between atoms: C_4  and  S_5 
    4  A    between atoms: S_5  and  C_6 
    5  A    between atoms: C_6  and  C_7 
       I    between atoms: C_7  and  N_9 

>  <TORSDO>
F 5

$$$$
C:\Users\siddh\.mgltools\PyRx\Ligands\ZINC000000203988_uff_E=337.31.pdbqt
 OpenBabel04182118313D

 22 23  0  0  1  0  0  0  0  0999 V2000
    2.1330    0.0090   -1.2490 N   0  0  0  0  0  0  0  0  0  0  0  0
    3.0830   -0.2270   -0.3240 C   0  0  0  0  0  0  0  0  0  0  0  0
    2.9060   -0.9010    0.6800 O   0  0  0  0  0  0  0  0  0  0  0  0
    4.2430    0.3750   -0.5890 N   0  0  0  0  0  0  0  0  0  0  0  0
    4.1560    1.1120   -1.8250 C   0  0  2  0  0  3  0  0  0  0  0  0
    4.1860    2.5350   -1.5870 N   0  0  0  0  0  0  0  0  0  0  0  0
    2.9980    3.0730   -1.8670 C   0  0  0  0  0  0  0  0  0  0  0  0
    2.7550    4.2630   -1.7420 O   0  0  0  0  0  0  0  0  0  0  0  0
    2.0920    2.1800   -2.2720 N   0  0  0  0  0  0  0  0  0  0  0  0
    2.6710    0.8560   -2.2980 C   0  0  2  0  0  3  0  0  0  0  0  0
    5.0760    0.3370    0.0170 H   0  0  0  0  0  0  0  0  0  0  0  0
    5.0010    3.0590   -1.2350 H   0  0  0  0  0  0  0  0  0  0  0  0
    1.1150    2.4040   -2.5110 H   0  0  0  0  0  0  0  0  0  0  0  0
    0.7550   -0.4880   -1.2260 C   0  0  2  0  0  3  0  0  0  0  0  0
   -0.0160   -0.0080    0.0410 C   0  0  0  0  0  3  0  0  0  0  0  0
   -0.0390    1.5260    0.1190 C   0  0  0  0  0  1  0  0  0  0  0  0
   -1.4660   -0.5240    0.0400 C   0  0  0  0  0  1  0  0  0  0  0  0
    0.7380   -1.9960   -1.3640 C   0  0  0  0  0  3  0  0  0  0  0  0
    0.0630   -2.5650   -2.3820 O   0  0  0  0  0  0  0  0  0  0  0  0
    0.0500   -3.4970   -2.4720 H   0  0  0  0  0  0  0  0  0  0  0  0
    1.3670   -2.7820   -0.4700 O   0  0  0  0  0  0  0  0  0  0  0  0
    1.8390   -2.3970    0.2420 H   0  0  0  0  0  0  0  0  0  0  0  0
  1 14  1  0  0  0  0
  1  2  1  0  0  0  0
  2  3  2  0  0  0  0
  4  2  1  0  0  0  0
  4 11  1  0  0  0  0
  5  6  1  1  0  0  0
  5  4  1  0  0  0  0
  6 12  1  0  0  0  0
  7  8  2  0  0  0  0
  7  6  1  0  0  0  0
  9  7  1  0  0  0  0
 10  9  1  1  0  0  0
 10  5  1  0  0  0  0
 10  1  1  0  0  0  0
 13  9  1  0  0  0  0
 14 18  1  1  0  0  0
 14 15  1  0  0  0  0
 15 16  1  0  0  0  0
 17 15  1  0  0  0  0
 18 21  1  0  0  0  0
 19 18  1  0  0  0  0
 20 19  1  0  0  0  0
 21 22  1  0  0  0  0
M  END
>  <REMARK>
  5 active torsions:
  status: ('A' for Active; 'I' for Inactive)
    1  A    between atoms: C_2  and  C_4 
    2  A    between atoms: C_4  and  C_5 
    3  A    between atoms: C_4  and  N_8 
    4  A    between atoms: C_5  and  O_6 
    5  A    between atoms: C_5  and  O_7 

>  <TORSDO>
F 5

$$$$
C:\Users\siddh\.mgltools\PyRx\Ligands\ZINC000000196478_uff_E=255.54.pdbqt
 OpenBabel04182118313D

 17 17  0  0  0  0  0  0  0  0999 V2000
    1.6780   -1.0010   -1.6590 P   0  0  0  0  0  4  0  0  0  0  0  0
   -0.1160   -0.7010   -1.2020 C   0  0  0  0  0  2  0  0  0  0  0  0
   -0.1420   -0.0000    0.0690 N   0  0  0  0  0  0  0  0  0  0  0  0
   -0.2630    1.4510    0.0950 C   0  0  0  0  0  1  0  0  0  0  0  0
    0.0230   -0.6960    1.2300 C   0  0  0  0  0  3  0  0  0  0  0  0
    0.0440   -0.1230    2.3080 O   0  0  0  0  0  0  0  0  0  0  0  0
    2.4640    0.5580   -1.6430 O   0  0  0  0  0  0  0  0  0  0  0  0
    2.4100    0.9390   -0.7520 H   0  0  0  0  0  0  0  0  0  0  0  0
    2.4060   -2.0930   -0.5130 O   0  0  0  0  0  0  0  0  0  0  0  0
    2.3470   -1.7140    0.3780 H   0  0  0  0  0  0  0  0  0  0  0  0
    1.7900   -1.7340   -3.3990 C   0  0  0  0  0  2  0  0  0  0  0  0
    3.1750   -2.0660   -3.8160 N   0  0  0  0  0  0  0  0  0  0  0  0
    3.1890   -2.3730   -5.2620 C   0  0  0  0  0  2  0  0  0  0  0  0
    4.6150   -2.7090   -5.7200 C   0  0  0  0  0  2  0  0  0  0  0  0
    5.4890   -1.6290   -5.4550 O   0  0  0  0  0  0  0  0  0  0  0  0
    5.5360   -1.4040   -4.0620 C   0  0  0  0  0  2  0  0  0  0  0  0
    4.1570   -0.9970   -3.5370 C   0  0  0  0  0  2  0  0  0  0  0  0
  1  7  1  0  0  0  0
  1  2  1  0  0  0  0
  1  9  1  0  0  0  0
  2  3  1  0  0  0  0
  3  4  1  0  0  0  0
  3  5  1  0  0  0  0
  5  6  2  0  0  0  0
  7  8  1  0  0  0  0
  9 10  1  0  0  0  0
 11  1  1  0  0  0  0
 12 17  1  0  0  0  0
 12 11  1  0  0  0  0
 13 12  1  0  0  0  0
 14 15  1  0  0  0  0
 14 13  1  0  0  0  0
 15 16  1  0  0  0  0
 16 17  1  0  0  0  0
M  END
>  <REMARK>
  7 active torsions:
  status: ('A' for Active; 'I' for Inactive)
    1  A    between atoms: N_2  and  C_3 
    2  A    between atoms: N_2  and  C_5 
    3  A    between atoms: C_5  and  P_6 
    4  A    between atoms: P_6  and  O_7 
    5  A    between atoms: P_6  and  O_8 
    6  A    between atoms: P_6  and  C_9 
    7  A    between atoms: C_9  and  N_10 

>  <TORSDO>
F 7

$$$$
C:\Users\siddh\.mgltools\PyRx\Ligands\ZINC000000193798_uff_E=149.03.pdbqt
 OpenBabel04182118313D

 21 22  0  0  1  0  0  0  0  0999 V2000
    2.4470    1.2020   -0.0150 C   0  0  1  0  0  3  0  0  0  0  0  0
    2.5140   -0.1560   -0.0270 N   0  0  0  0  0  0  0  0  0  0  0  0
    1.6490   -0.6960   -0.0240 H   0  0  0  0  0  0  0  0  0  0  0  0
    3.6810   -0.7980   -0.0420 N   0  0  0  0  0  0  0  0  0  0  0  0
    4.8590   -0.0990   -0.0460 C   0  0  0  0  0  0  0  0  0  0  0  0
    5.9230   -0.6910   -0.0600 O   0  0  0  0  0  0  0  0  0  0  0  0
    4.8370    1.2660   -0.0350 N   0  0  0  0  0  0  0  0  0  0  0  0
    3.6450    1.9340   -0.0190 C   0  0  0  0  0  0  0  0  0  0  0  0
    3.6360    3.1520   -0.0090 O   0  0  0  0  0  0  0  0  0  0  0  0
    3.6850   -1.8420   -0.0510 H   0  0  0  0  0  0  0  0  0  0  0  0
    5.6820    1.7710   -0.0370 H   0  0  0  0  0  0  0  0  0  0  0  0
    1.1860    1.8730   -0.0000 N   0  0  0  0  0  0  0  0  0  0  0  0
   -0.0190    1.2200    0.0060 C   0  0  0  0  0  0  0  0  0  0  0  0
   -0.0530   -0.0030    0.0010 O   0  0  0  0  0  0  0  0  0  0  0  0
    1.2110    2.8960    0.0060 H   0  0  0  0  0  0  0  0  0  0  0  0
   -1.3160    1.9670    0.0180 C   0  0  0  0  0  0  0  0  0  0  0  0
   -2.5260    1.2410    0.0250 C   0  0  0  0  0  3  0  0  0  0  0  0
   -3.7530    1.9080    0.0350 C   0  0  0  0  0  3  0  0  0  0  0  0
   -3.7920    3.3030    0.0380 C   0  0  0  0  0  3  0  0  0  0  0  0
   -2.6060    4.0340    0.0310 C   0  0  0  0  0  3  0  0  0  0  0  0
   -1.3770    3.3790    0.0210 C   0  0  0  0  0  3  0  0  0  0  0  0
  1 12  1  6  0  0  0
  2  3  1  0  0  0  0
  2  1  1  0  0  0  0
  4  2  1  0  0  0  0
  5  4  1  0  0  0  0
  5  7  1  0  0  0  0
  6  5  2  0  0  0  0
  7  8  1  0  0  0  0
  8  1  1  0  0  0  0
  8  9  2  0  0  0  0
 10  4  1  0  0  0  0
 11  7  1  0  0  0  0
 12 13  1  0  0  0  0
 12 15  1  0  0  0  0
 13 16  1  0  0  0  0
 14 13  2  0  0  0  0
 16 21  2  0  0  0  0
 16 17  1  0  0  0  0
 17 18  2  0  0  0  0
 18 19  1  0  0  0  0
 20 19  2  0  0  0  0
 21 20  1  0  0  0  0
M  END
>  <REMARK>
  2 active torsions:
  status: ('A' for Active; 'I' for Inactive)
       I    between atoms: C_2  and  N_3 
    1  A    between atoms: C_2  and  C_13 
    2  A    between atoms: N_3  and  C_4 

>  <TORSDO>
F 2

$$$$
C:\Users\siddh\.mgltools\PyRx\Ligands\ZINC000000180379_uff_E=137.13.pdbqt
 OpenBabel04182118313D

 17 17  0  0  0  0  0  0  0  0999 V2000
    0.1240   -0.0820   -0.0220 O   0  0  0  0  0  0  0  0  0  0  0  0
    0.0390    1.2640   -0.0220 C   0  0  0  0  0  3  0  0  0  0  0  0
    0.2840   -1.0060   -0.0220 H   0  0  0  0  0  0  0  0  0  0  0  0
    1.1680    1.9970   -0.0220 O   0  0  0  0  0  0  0  0  0  0  0  0
    1.1190    2.9330   -0.0220 H   0  0  0  0  0  0  0  0  0  0  0  0
   -1.2980    1.9580   -0.0110 C   0  0  0  0  0  2  0  0  0  0  0  0
   -2.4590    0.9590    0.0160 C   0  0  0  0  0  2  0  0  0  0  0  0
   -3.8280    1.6610    0.0660 C   0  0  0  0  0  2  0  0  0  0  0  0
   -4.9400    0.6840    0.0630 N   0  0  0  0  0  0  0  0  0  0  0  0
   -6.2240    1.3600   -0.2130 C   0  0  0  0  0  2  0  0  0  0  0  0
   -7.3070    0.4000   -0.2780 N   0  0  0  0  0  0  0  0  0  0  0  0
   -7.2260   -0.8140    0.4550 C   0  0  0  0  0  0  0  0  0  0  0  0
   -8.1980    0.6790   -0.7180 H   0  0  0  0  0  0  0  0  0  0  0  0
   -6.0810   -1.0700    1.2530 N   0  0  0  0  0  0  0  0  0  0  0  0
   -8.3360   -1.7320    0.4650 S   0  0  0  0  0  0  0  0  0  0  0  0
   -5.0110   -0.1000    1.3160 C   0  0  0  0  0  2  0  0  0  0  0  0
   -6.0690   -1.8680    1.9070 H   0  0  0  0  0  0  0  0  0  0  0  0
  1  2  1  0  0  0  0
  1  3  1  0  0  0  0
  2  4  1  0  0  0  0
  2  6  1  0  0  0  0
  4  5  1  0  0  0  0
  6  7  1  0  0  0  0
  7  8  1  0  0  0  0
  9  8  1  0  0  0  0
  9 16  1  0  0  0  0
 10  9  1  0  0  0  0
 11 10  1  0  0  0  0
 11 12  1  0  0  0  0
 12 15  2  0  0  0  0
 12 14  1  0  0  0  0
 13 11  1  0  0  0  0
 14 16  1  0  0  0  0
 14 17  1  0  0  0  0
M  END
>  <REMARK>
  5 active torsions:
  status: ('A' for Active; 'I' for Inactive)
    1  A    between atoms: C_2  and  O_3 
    2  A    between atoms: C_2  and  C_4 
    3  A    between atoms: C_4  and  C_5 
    4  A    between atoms: C_5  and  C_6 
    5  A    between atoms: C_6  and  N_7 

>  <TORSDO>
F 5

$$$$
C:\Users\siddh\.mgltools\PyRx\Ligands\ZINC000000166255_uff_E=411.62.pdbqt
 OpenBabel04182118313D

 19 20  0  0  1  0  0  0  0  0999 V2000
   -1.3540    1.9460    0.0140 C   0  0  1  0  0  3  0  0  0  0  0  0
   -1.5300    2.5530   -1.3860 C   0  0  0  0  0  2  0  0  0  0  0  0
   -3.0310    2.4820   -1.5830 C   0  0  2  0  0  3  0  0  0  0  0  0
   -3.3640    1.0990   -1.0170 C   0  0  0  0  0  2  0  0  0  0  0  0
   -2.4600    1.0040    0.1080 N   0  0  0  0  0  0  0  0  0  0  0  0
   -2.6580    0.1900    1.1990 C   0  0  0  0  0  0  0  0  0  0  0  0
   -1.8730    0.2430    2.1370 O   0  0  0  0  0  0  0  0  0  0  0  0
    0.0140    1.3060    0.1050 C   0  0  0  0  0  3  0  0  0  0  0  0
    0.1460   -0.0300    0.2250 O   0  0  0  0  0  0  0  0  0  0  0  0
    0.3890   -0.9070    0.4480 H   0  0  0  0  0  0  0  0  0  0  0  0
    1.1170    2.0740    0.0210 O   0  0  0  0  0  0  0  0  0  0  0  0
    1.0350    3.0040   -0.0630 H   0  0  0  0  0  0  0  0  0  0  0  0
   -3.8060   -0.7500    1.3060 C   0  0  0  0  0  0  0  0  0  0  0  0
   -4.7280   -0.9400    0.3890 O   0  0  0  0  0  0  0  0  0  0  0  0
   -5.5910   -1.8310    0.8220 C   0  0  0  0  0  3  0  0  0  0  0  0
   -5.2190   -2.2530    2.0810 C   0  0  0  0  0  3  0  0  0  0  0  0
   -4.0720   -1.5600    2.3940 C   0  0  0  0  0  3  0  0  0  0  0  0
   -3.3980    2.6380   -2.9280 O   0  0  0  0  0  0  0  0  0  0  0  0
   -4.3690    2.4390   -2.9830 H   0  0  0  0  0  0  0  0  0  0  0  0
  1  8  1  6  0  0  0
  1  5  1  0  0  0  0
  2  1  1  0  0  0  0
  3 18  1  6  0  0  0
  3  2  1  0  0  0  0
  3  4  1  0  0  0  0
  4  5  1  0  0  0  0
  5  6  1  0  0  0  0
  6 13  1  0  0  0  0
  6  7  2  0  0  0  0
  8  9  1  0  0  0  0
  9 10  1  0  0  0  0
 11  8  1  0  0  0  0
 12 11  1  0  0  0  0
 13 17  2  0  0  0  0
 14 15  1  0  0  0  0
 14 13  1  0  0  0  0
 15 16  2  0  0  0  0
 16 17  1  0  0  0  0
 19 18  1  0  0  0  0
M  END
>  <REMARK>
  5 active torsions:
  status: ('A' for Active; 'I' for Inactive)
    1  A    between atoms: O_1  and  C_2 
    2  A    between atoms: C_2  and  O_3 
    3  A    between atoms: C_2  and  C_4 
    4  A    between atoms: C_6  and  O_7 
       I    between atoms: N_9  and  C_10 
    5  A    between atoms: C_10  and  C_12 

>  <TORSDO>
F 5

$$$$
C:\Users\siddh\.mgltools\PyRx\Ligands\ZINC000000153321_uff_E=131.79.pdbqt
 OpenBabel04182118313D

 20 20  0  0  1  0  0  0  0  0999 V2000
    0.0930   -0.0980   -0.0340 O   0  0  0  0  0  0  0  0  0  0  0  0
    0.0790    1.2460   -0.1560 C   0  0  0  0  0  3  0  0  0  0  0  0
    0.1200   -1.0060    0.1920 H   0  0  0  0  0  0  0  0  0  0  0  0
    1.2420    1.9100   -0.2840 O   0  0  0  0  0  0  0  0  0  0  0  0
    1.2410    2.8440   -0.3680 H   0  0  0  0  0  0  0  0  0  0  0  0
   -1.2170    2.0120   -0.1560 C   0  0  0  0  0  2  0  0  0  0  0  0
   -2.4310    1.0970    0.0420 C   0  0  0  0  0  2  0  0  0  0  0  0
   -3.7560    1.8170   -0.0130 C   0  0  0  0  0  0  0  0  0  0  0  0
   -3.8110    3.0060   -0.2950 O   0  0  0  0  0  0  0  0  0  0  0  0
   -4.8900    1.1100    0.2400 N   0  0  0  0  0  0  0  0  0  0  0  0
   -4.7800    0.1320    0.5280 H   0  0  0  0  0  0  0  0  0  0  0  0
   -6.2270    1.6770    0.0960 C   0  0  1  0  0  3  0  0  0  0  0  0
   -6.4660    2.1290   -1.3300 C   0  0  0  0  0  0  0  0  0  0  0  0
   -6.4400    1.2760   -2.3890 N   0  0  0  0  0  0  0  0  0  0  0  0
   -6.6860    3.3150   -1.5340 O   0  0  0  0  0  0  0  0  0  0  0  0
   -6.2010   -0.1530   -2.2880 C   0  0  0  0  0  2  0  0  0  0  0  0
   -6.5960    1.6660   -3.3310 H   0  0  0  0  0  0  0  0  0  0  0  0
   -7.3250   -0.8710   -1.5310 C   0  0  0  0  0  2  0  0  0  0  0  0
   -7.2690   -0.7290   -0.0080 C   0  0  0  0  0  2  0  0  0  0  0  0
   -7.3360    0.7020    0.5560 C   0  0  0  0  0  2  0  0  0  0  0  0
  1  3  1  0  0  0  0
  2  6  1  0  0  0  0
  2  1  1  0  0  0  0
  4  2  1  0  0  0  0
  5  4  1  0  0  0  0
  6  7  1  0  0  0  0
  8  7  1  0  0  0  0
  8 10  1  0  0  0  0
  9  8  2  0  0  0  0
 10 11  1  0  0  0  0
 12 10  1  6  0  0  0
 12 20  1  0  0  0  0
 13 12  1  0  0  0  0
 14 16  1  0  0  0  0
 14 13  1  0  0  0  0
 15 13  2  0  0  0  0
 16 18  1  0  0  0  0
 17 14  1  0  0  0  0
 18 19  1  0  0  0  0
 19 20  1  0  0  0  0
M  END
>  <REMARK>
  5 active torsions:
  status: ('A' for Active; 'I' for Inactive)
    1  A    between atoms: C_2  and  O_3 
    2  A    between atoms: C_2  and  C_4 
    3  A    between atoms: C_4  and  C_5 
    4  A    between atoms: C_5  and  C_6 
       I    between atoms: C_6  and  N_8 
    5  A    between atoms: N_8  and  C_9 

>  <TORSDO>
F 5

$$$$
C:\Users\siddh\.mgltools\PyRx\Ligands\ZINC000000124830_uff_E=154.59.pdbqt
 OpenBabel04182118313D

 21 21  0  0  1  0  0  0  0  0999 V2000
    2.0880   -3.7530   -2.4360 C   0  0  1  0  0  3  0  0  0  0  0  0
    2.1250   -4.5980   -1.3710 N   0  0  0  0  0  0  0  0  0  0  0  0
    1.6920   -4.3100   -0.4930 H   0  0  0  0  0  0  0  0  0  0  0  0
    2.7120   -5.7930   -1.4470 N   0  0  0  0  0  0  0  0  0  0  0  0
    3.3160   -6.2000   -2.6080 C   0  0  0  0  0  0  0  0  0  0  0  0
    3.8440   -7.2960   -2.6740 O   0  0  0  0  0  0  0  0  0  0  0  0
    3.3210   -5.3710   -3.6940 N   0  0  0  0  0  0  0  0  0  0  0  0
    2.7120   -4.1490   -3.6290 C   0  0  0  0  0  0  0  0  0  0  0  0
    2.7100   -3.4240   -4.6080 O   0  0  0  0  0  0  0  0  0  0  0  0
    2.6990   -6.4210   -0.6130 H   0  0  0  0  0  0  0  0  0  0  0  0
    3.7650   -5.6560   -4.5250 H   0  0  0  0  0  0  0  0  0  0  0  0
    1.3920   -2.5080   -2.3540 N   0  0  0  0  0  0  0  0  0  0  0  0
    1.3290   -1.9320   -3.2070 H   0  0  0  0  0  0  0  0  0  0  0  0
    0.6730   -2.0700   -1.1540 C   0  0  1  0  0  3  0  0  0  0  0  0
    0.6770   -0.5400   -1.0960 C   0  0  0  0  0  0  0  0  0  0  0  0
    1.1740    0.1100   -2.0070 O   0  0  0  0  0  0  0  0  0  0  0  0
    0.1400    0.1030   -0.0290 O   0  0  0  0  0  0  0  0  0  0  0  0
    0.0260    1.4760    0.0440 C   0  0  0  0  0  1  0  0  0  0  0  0
   -0.7840   -2.6640   -1.1240 C   0  0  0  0  0  3  0  0  0  0  0  0
   -0.8020   -4.2000   -1.2180 C   0  0  0  0  0  1  0  0  0  0  0  0
   -1.5610   -2.2880    0.1540 C   0  0  0  0  0  1  0  0  0  0  0  0
  1 12  1  6  0  0  0
  1  2  1  0  0  0  0
  2  3  1  0  0  0  0
  4  2  1  0  0  0  0
  4 10  1  0  0  0  0
  5  4  1  0  0  0  0
  6  5  2  0  0  0  0
  7  8  1  0  0  0  0
  7  5  1  0  0  0  0
  8  1  1  0  0  0  0
  9  8  2  0  0  0  0
 11  7  1  0  0  0  0
 12 14  1  0  0  0  0
 13 12  1  0  0  0  0
 14 19  1  6  0  0  0
 14 15  1  0  0  0  0
 15 17  1  0  0  0  0
 16 15  2  0  0  0  0
 17 18  1  0  0  0  0
 19 21  1  0  0  0  0
 20 19  1  0  0  0  0
M  END
>  <REMARK>
  5 active torsions:
  status: ('A' for Active; 'I' for Inactive)
    1  A    between atoms: O_2  and  C_3 
    2  A    between atoms: C_3  and  C_5 
    3  A    between atoms: C_5  and  N_6 
    4  A    between atoms: C_5  and  C_16 
    5  A    between atoms: N_6  and  C_7 

>  <TORSDO>
F 5

$$$$
C:\Users\siddh\.mgltools\PyRx\Ligands\ZINC000000124828_uff_E=154.10.pdbqt
 OpenBabel04182118313D

 21 21  0  0  1  0  0  0  0  0999 V2000
    1.0710   -3.7620   -3.0110 C   0  0  2  0  0  3  0  0  0  0  0  0
    0.1480   -4.6140   -2.4890 N   0  0  0  0  0  0  0  0  0  0  0  0
   -0.3880   -4.3260   -1.6700 H   0  0  0  0  0  0  0  0  0  0  0  0
   -0.0720   -5.8170   -3.0210 N   0  0  0  0  0  0  0  0  0  0  0  0
    0.6210   -6.2260   -4.1290 C   0  0  0  0  0  0  0  0  0  0  0  0
    0.4230   -7.3290   -4.6060 O   0  0  0  0  0  0  0  0  0  0  0  0
    1.5410   -5.3910   -4.6980 N   0  0  0  0  0  0  0  0  0  0  0  0
    1.7810   -4.1600   -4.1540 C   0  0  0  0  0  0  0  0  0  0  0  0
    2.6150   -3.4300   -4.6600 O   0  0  0  0  0  0  0  0  0  0  0  0
   -0.7740   -6.4510   -2.5770 H   0  0  0  0  0  0  0  0  0  0  0  0
    2.0320   -5.6770   -5.5020 H   0  0  0  0  0  0  0  0  0  0  0  0
    1.3410   -2.5070   -2.3820 N   0  0  0  0  0  0  0  0  0  0  0  0
    2.1050   -1.9300   -2.7650 H   0  0  0  0  0  0  0  0  0  0  0  0
    0.6780   -2.0700   -1.1510 C   0  0  2  0  0  3  0  0  0  0  0  0
    0.6020   -0.5410   -1.1390 C   0  0  0  0  0  0  0  0  0  0  0  0
    1.1150    0.1090   -2.0410 O   0  0  0  0  0  0  0  0  0  0  0  0
   -0.0450    0.1020   -0.1340 O   0  0  0  0  0  0  0  0  0  0  0  0
   -0.0710    1.4760   -0.0110 C   0  0  0  0  0  1  0  0  0  0  0  0
    1.4150   -2.6400    0.1170 C   0  0  0  0  0  3  0  0  0  0  0  0
    0.7160   -2.2640    1.4390 C   0  0  0  0  0  1  0  0  0  0  0  0
    1.5280   -4.1760    0.0970 C   0  0  0  0  0  1  0  0  0  0  0  0
  1  2  1  0  0  0  0
  1 12  1  1  0  0  0
  2  3  1  0  0  0  0
  4 10  1  0  0  0  0
  4  2  1  0  0  0  0
  5  4  1  0  0  0  0
  6  5  2  0  0  0  0
  7  8  1  0  0  0  0
  7  5  1  0  0  0  0
  8  1  1  0  0  0  0
  9  8  2  0  0  0  0
 11  7  1  0  0  0  0
 12 14  1  0  0  0  0
 13 12  1  0  0  0  0
 14 15  1  1  0  0  0
 14 19  1  0  0  0  0
 15 17  1  0  0  0  0
 16 15  2  0  0  0  0
 17 18  1  0  0  0  0
 19 20  1  0  0  0  0
 21 19  1  0  0  0  0
M  END
>  <REMARK>
  5 active torsions:
  status: ('A' for Active; 'I' for Inactive)
    1  A    between atoms: O_2  and  C_3 
    2  A    between atoms: C_3  and  C_5 
    3  A    between atoms: C_5  and  N_6 
    4  A    between atoms: C_5  and  C_16 
    5  A    between atoms: N_6  and  C_7 

>  <TORSDO>
F 5

$$$$
C:\Users\siddh\.mgltools\PyRx\Ligands\ZINC000000115780_uff_E=131.80.pdbqt
 OpenBabel04182118313D

 19 19  0  0  1  0  0  0  0  0999 V2000
    1.1610   -0.5110    4.0090 C   0  0  2  0  0  3  0  0  0  0  0  0
    2.3700   -1.0170    3.6410 N   0  0  0  0  0  0  0  0  0  0  0  0
    2.5620   -1.1820    2.6530 H   0  0  0  0  0  0  0  0  0  0  0  0
    3.3110   -1.3030    4.5450 N   0  0  0  0  0  0  0  0  0  0  0  0
    3.0810   -1.0910    5.8800 C   0  0  0  0  0  0  0  0  0  0  0  0
    3.9410   -1.3540    6.7020 O   0  0  0  0  0  0  0  0  0  0  0  0
    1.8800   -0.5810    6.2860 N   0  0  0  0  0  0  0  0  0  0  0  0
    0.9120   -0.2870    5.3660 C   0  0  0  0  0  0  0  0  0  0  0  0
   -0.1570    0.1640    5.7360 O   0  0  0  0  0  0  0  0  0  0  0  0
    4.2260   -1.6920    4.2270 H   0  0  0  0  0  0  0  0  0  0  0  0
    1.7120   -0.4260    7.2440 H   0  0  0  0  0  0  0  0  0  0  0  0
   -0.1220   -0.1390    2.7790 S   0  0  0  0  0  0  0  0  0  0  0  0
    0.7830   -0.6260    1.2510 C   0  0  2  0  0  3  0  0  0  0  0  0
    0.0200   -0.1320    0.0060 C   0  0  0  0  0  2  0  0  0  0  0  0
   -0.1260    1.3920   -0.0370 C   0  0  0  0  0  1  0  0  0  0  0  0
    0.9610   -2.1260    1.1810 C   0  0  0  0  0  0  0  0  0  0  0  0
    0.3290   -2.8590    1.9320 O   0  0  0  0  0  0  0  0  0  0  0  0
    1.8840   -2.6490    0.3320 O   0  0  0  0  0  0  0  0  0  0  0  0
    2.1620   -3.9990    0.2700 C   0  0  0  0  0  1  0  0  0  0  0  0
  1 12  1  1  0  0  0
  1  8  1  0  0  0  0
  2  1  1  0  0  0  0
  2  4  1  0  0  0  0
  3  2  1  0  0  0  0
  4  5  1  0  0  0  0
  5  7  1  0  0  0  0
  5  6  2  0  0  0  0
  7 11  1  0  0  0  0
  8  9  2  0  0  0  0
  8  7  1  0  0  0  0
 10  4  1  0  0  0  0
 13 14  1  6  0  0  0
 13 12  1  0  0  0  0
 15 14  1  0  0  0  0
 16 13  1  0  0  0  0
 16 17  2  0  0  0  0
 18 16  1  0  0  0  0
 19 18  1  0  0  0  0
M  END
>  <REMARK>
  5 active torsions:
  status: ('A' for Active; 'I' for Inactive)
    1  A    between atoms: C_2  and  C_3 
    2  A    between atoms: C_3  and  S_4 
    3  A    between atoms: C_3  and  C_14 
    4  A    between atoms: S_4  and  C_5 
    5  A    between atoms: C_14  and  O_16 

>  <TORSDO>
F 5

$$$$
C:\Users\siddh\.mgltools\PyRx\Ligands\ZINC000000070213_uff_E=131.84.pdbqt
 OpenBabel04182118313D

 20 20  0  0  0  0  0  0  0  0999 V2000
    0.0280   -0.0850   -0.0020 O   0  0  0  0  0  0  0  0  0  0  0  0
   -0.0270    1.2620    0.0020 C   0  0  0  0  0  3  0  0  0  0  0  0
    0.1340   -1.0160   -0.0110 H   0  0  0  0  0  0  0  0  0  0  0  0
    1.1140    1.9740   -0.0090 O   0  0  0  0  0  0  0  0  0  0  0  0
    1.0830    2.9110   -0.0060 H   0  0  0  0  0  0  0  0  0  0  0  0
   -1.3490    1.9700    0.0200 C   0  0  0  0  0  2  0  0  0  0  0  0
   -2.3720    1.0060    0.0360 O   0  0  0  0  0  0  0  0  0  0  0  0
   -3.6430    1.6190    0.0470 C   0  0  0  0  0  2  0  0  0  0  0  0
   -4.6800    0.5310    0.0190 C   0  0  0  0  0  0  0  0  0  0  0  0
   -4.3110   -0.6350   -0.0030 O   0  0  0  0  0  0  0  0  0  0  0  0
   -6.0100    0.8420    0.0030 N   0  0  0  0  0  0  0  0  0  0  0  0
   -6.2860    1.8360    0.0210 H   0  0  0  0  0  0  0  0  0  0  0  0
   -7.0360   -0.1530   -0.0720 C   0  0  0  0  0  0  0  0  0  0  0  0
   -6.7230   -1.4790   -0.0910 N   0  0  0  0  0  0  0  0  0  0  0  0
   -7.6780   -2.4360   -0.1860 C   0  0  0  0  0  3  0  0  0  0  0  0
   -5.7440   -1.7590   -0.0310 H   0  0  0  0  0  0  0  0  0  0  0  0
   -9.0160   -2.0590   -0.2700 C   0  0  0  0  0  3  0  0  0  0  0  0
   -9.3430   -0.7400   -0.2490 N   0  0  0  0  0  0  0  0  0  0  0  0
   -8.3850    0.2210   -0.1500 C   0  0  0  0  0  3  0  0  0  0  0  0
  -10.3240   -0.4650   -0.3080 H   0  0  0  0  0  0  0  0  0  0  0  0
  1  2  1  0  0  0  0
  2  6  1  0  0  0  0
  3  1  1  0  0  0  0
  4  5  1  0  0  0  0
  4  2  1  0  0  0  0
  6  7  1  0  0  0  0
  7  8  1  0  0  0  0
  9  8  1  0  0  0  0
 10  9  2  0  0  0  0
 11  9  1  0  0  0  0
 11 12  1  0  0  0  0
 13 11  1  0  0  0  0
 14 13  1  0  0  0  0
 14 16  1  0  0  0  0
 15 14  1  0  0  0  0
 17 18  1  0  0  0  0
 17 15  2  0  0  0  0
 18 19  1  0  0  0  0
 19 13  2  0  0  0  0
 20 18  1  0  0  0  0
M  END
>  <REMARK>
  6 active torsions:
  status: ('A' for Active; 'I' for Inactive)
    1  A    between atoms: C_2  and  O_3 
    2  A    between atoms: C_2  and  C_4 
    3  A    between atoms: C_4  and  O_5 
    4  A    between atoms: O_5  and  C_6 
    5  A    between atoms: C_6  and  C_7 
       I    between atoms: C_7  and  N_9 
    6  A    between atoms: N_9  and  C_10 

>  <TORSDO>
F 6

$$$$
C:\Users\siddh\.mgltools\PyRx\Ligands\ZINC000000053392_uff_E=345.26.pdbqt
 OpenBabel04182118313D

 20 21  0  0  1  0  0  0  0  0999 V2000
   -0.5840    1.3900    0.3390 C   0  0  0  0  0  1  0  0  0  0  0  0
   -0.3740   -0.0390    0.2680 N   0  0  0  0  0  0  0  0  0  0  0  0
   -0.3920   -0.7570   -0.8600 C   0  0  0  0  0  0  0  0  0  0  0  0
   -0.5850   -0.2660   -1.9640 O   0  0  0  0  0  0  0  0  0  0  0  0
   -0.1970   -2.0680   -0.6550 N   0  0  0  0  0  0  0  0  0  0  0  0
   -0.1720   -3.0740   -1.6990 C   0  0  0  0  0  1  0  0  0  0  0  0
    0.0240   -2.3280    0.7590 C   0  0  1  0  0  3  0  0  0  0  0  0
   -0.1120   -0.8920    1.4070 C   0  0  2  0  0  3  0  0  0  0  0  0
   -1.2670   -1.0200    2.2650 N   0  0  0  0  0  0  0  0  0  0  0  0
   -1.7350   -2.2690    2.2270 C   0  0  0  0  0  0  0  0  0  0  0  0
   -2.7010   -2.6380    2.8790 O   0  0  0  0  0  0  0  0  0  0  0  0
   -1.0560   -3.0660    1.3870 N   0  0  0  0  0  0  0  0  0  0  0  0
   -1.6700   -0.2590    2.8320 H   0  0  0  0  0  0  0  0  0  0  0  0
   -1.3370   -4.4740    1.1600 C   0  0  0  0  0  2  0  0  0  0  0  0
   -0.9740   -5.3110    2.3920 C   0  0  0  0  0  2  0  0  0  0  0  0
   -1.2140   -6.7820    2.1780 C   0  0  0  0  0  3  0  0  0  0  0  0
   -1.7520   -7.2390    1.0290 O   0  0  0  0  0  0  0  0  0  0  0  0
   -1.8950   -8.1580    0.9120 H   0  0  0  0  0  0  0  0  0  0  0  0
   -0.8810   -7.6560    3.1470 O   0  0  0  0  0  0  0  0  0  0  0  0
   -0.5070   -7.3470    3.9480 H   0  0  0  0  0  0  0  0  0  0  0  0
  2  1  1  0  0  0  0
  3  5  1  0  0  0  0
  3  2  1  0  0  0  0
  4  3  2  0  0  0  0
  6  5  1  0  0  0  0
  7  5  1  6  0  0  0
  7 12  1  0  0  0  0
  7  8  1  0  0  0  0
  8  2  1  6  0  0  0
  8  9  1  0  0  0  0
  9 13  1  0  0  0  0
 10  9  1  0  0  0  0
 10 11  2  0  0  0  0
 12 10  1  0  0  0  0
 14 12  1  0  0  0  0
 14 15  1  0  0  0  0
 16 15  1  0  0  0  0
 16 19  1  0  0  0  0
 17 16  1  0  0  0  0
 18 17  1  0  0  0  0
 19 20  1  0  0  0  0
M  END
>  <REMARK>
  5 active torsions:
  status: ('A' for Active; 'I' for Inactive)
    1  A    between atoms: N_12  and  C_13 
    2  A    between atoms: C_13  and  C_14 
    3  A    between atoms: C_14  and  C_15 
    4  A    between atoms: C_15  and  O_16 
    5  A    between atoms: C_15  and  O_17 

>  <TORSDO>
F 5

$$$$
C:\Users\siddh\.mgltools\PyRx\Ligands\ZINC000000053391_uff_E=885.48.pdbqt
 OpenBabel04182118313D

 20 21  0  0  1  0  0  0  0  0999 V2000
    0.0050    1.4020    0.0230 C   0  0  0  0  0  1  0  0  0  0  0  0
   -0.2880   -0.0130    0.0010 N   0  0  0  0  0  0  0  0  0  0  0  0
   -0.1350   -0.7930   -1.1070 C   0  0  0  0  0  0  0  0  0  0  0  0
    0.0630   -0.3540   -2.2310 O   0  0  0  0  0  0  0  0  0  0  0  0
   -0.1930   -2.1190   -0.8050 N   0  0  0  0  0  0  0  0  0  0  0  0
   -0.0950   -3.2250   -1.7320 C   0  0  0  0  0  1  0  0  0  0  0  0
   -0.6710   -2.1940    0.5460 C   0  0  2  0  0  3  0  0  0  0  0  0
   -0.0140   -0.9180    1.0800 C   0  0  2  0  0  3  0  0  0  0  0  0
   -0.4480   -0.9610    2.4440 N   0  0  0  0  0  0  0  0  0  0  0  0
   -0.4300   -2.2840    2.7500 C   0  0  0  0  0  0  0  0  0  0  0  0
   -0.4660   -2.7170    3.8920 O   0  0  0  0  0  0  0  0  0  0  0  0
   -0.3280   -3.0660    1.6360 N   0  0  0  0  0  0  0  0  0  0  0  0
   -0.3840   -0.2020    3.1390 H   0  0  0  0  0  0  0  0  0  0  0  0
   -0.3910   -4.5140    1.6020 C   0  0  0  0  0  2  0  0  0  0  0  0
   -1.8000   -5.0620    1.8580 C   0  0  0  0  0  2  0  0  0  0  0  0
   -1.8370   -6.5660    1.7360 C   0  0  0  0  0  3  0  0  0  0  0  0
   -0.7240   -7.2660    1.4320 O   0  0  0  0  0  0  0  0  0  0  0  0
   -0.7620   -8.1990    1.3600 H   0  0  0  0  0  0  0  0  0  0  0  0
   -2.9970   -7.2220    1.9220 O   0  0  0  0  0  0  0  0  0  0  0  0
   -3.7760   -6.7460    2.1330 H   0  0  0  0  0  0  0  0  0  0  0  0
  2  1  1  0  0  0  0
  3  5  1  0  0  0  0
  3  2  1  0  0  0  0
  4  3  2  0  0  0  0
  6  5  1  0  0  0  0
  7  5  1  6  0  0  0
  7  8  1  0  0  0  0
  7 12  1  0  0  0  0
  8  2  1  6  0  0  0
  8  9  1  0  0  0  0
  9 10  1  0  0  0  0
  9 13  1  0  0  0  0
 10 11  2  0  0  0  0
 12 10  1  0  0  0  0
 14 12  1  0  0  0  0
 14 15  1  0  0  0  0
 16 15  1  0  0  0  0
 16 19  1  0  0  0  0
 17 16  1  0  0  0  0
 18 17  1  0  0  0  0
 19 20  1  0  0  0  0
M  END
>  <REMARK>
  5 active torsions:
  status: ('A' for Active; 'I' for Inactive)
    1  A    between atoms: N_12  and  C_13 
    2  A    between atoms: C_13  and  C_14 
    3  A    between atoms: C_14  and  C_15 
    4  A    between atoms: C_15  and  O_16 
    5  A    between atoms: C_15  and  O_17 

>  <TORSDO>
F 5

$$$$
C:\Users\siddh\.mgltools\PyRx\Ligands\ZINC000000039857_uff_E=352.48.pdbqt
 OpenBabel04182118313D

 21 22  0  0  1  0  0  0  0  0999 V2000
    0.7470   -0.5090    1.1770 N   0  0  0  0  0  0  0  0  0  0  0  0
    0.4380   -0.2900    2.4840 C   0  0  0  0  0  2  0  0  0  0  0  0
    1.3160   -0.8910    3.3280 N   0  0  0  0  0  0  0  0  0  0  0  0
    1.3100   -0.8840    4.3480 H   0  0  0  0  0  0  0  0  0  0  0  0
    2.1970   -1.4960    2.5090 C   0  0  0  0  0  0  0  0  0  0  0  0
    1.8640   -1.2710    1.2100 C   0  0  0  0  0  0  0  0  0  0  0  0
    2.6470   -1.8080    0.1890 C   0  0  0  0  0  0  0  0  0  0  0  0
    2.3820   -1.6290   -0.9850 O   0  0  0  0  0  0  0  0  0  0  0  0
    3.7460   -2.5580    0.5410 N   0  0  0  0  0  0  0  0  0  0  0  0
    4.0690   -2.7760    1.8690 C   0  0  0  0  0  0  0  0  0  0  0  0
    5.0510   -3.4460    2.1420 O   0  0  0  0  0  0  0  0  0  0  0  0
    3.2800   -2.2370    2.8780 N   0  0  0  0  0  0  0  0  0  0  0  0
    3.5890   -2.4480    4.2990 C   0  0  0  0  0  1  0  0  0  0  0  0
    4.3490   -2.9700   -0.2080 H   0  0  0  0  0  0  0  0  0  0  0  0
   -0.0060   -0.0020    0.0140 C   0  0  2  0  0  3  0  0  0  0  0  0
   -0.0130    1.5290    0.0160 C   0  0  0  0  0  1  0  0  0  0  0  0
   -1.4190   -0.5350    0.0020 C   0  0  0  0  0  3  0  0  0  0  0  0
   -2.2490   -0.2050   -1.0060 O   0  0  0  0  0  0  0  0  0  0  0  0
   -3.1270   -0.5330   -1.0170 H   0  0  0  0  0  0  0  0  0  0  0  0
   -1.8590   -1.3510    0.9800 O   0  0  0  0  0  0  0  0  0  0  0  0
   -1.2890   -1.5860    1.6860 H   0  0  0  0  0  0  0  0  0  0  0  0
  1  6  1  0  0  0  0
  1  2  1  0  0  0  0
  2  3  1  0  0  0  0
  3  4  1  0  0  0  0
  5 12  1  0  0  0  0
  5  3  1  0  0  0  0
  6  5  2  0  0  0  0
  7  9  1  0  0  0  0
  7  6  1  0  0  0  0
  8  7  2  0  0  0  0
  9 10  1  0  0  0  0
 10 11  2  0  0  0  0
 10 12  1  0  0  0  0
 12 13  1  0  0  0  0
 14  9  1  0  0  0  0
 15 16  1  1  0  0  0
 15  1  1  0  0  0  0
 17 15  1  0  0  0  0
 17 20  1  0  0  0  0
 18 17  1  0  0  0  0
 19 18  1  0  0  0  0
 20 21  1  0  0  0  0
M  END
>  <REMARK>
  4 active torsions:
  status: ('A' for Active; 'I' for Inactive)
    1  A    between atoms: C_2  and  C_3 
    2  A    between atoms: C_2  and  N_6 
    3  A    between atoms: C_3  and  O_4 
    4  A    between atoms: C_3  and  O_5 

>  <TORSDO>
F 4

$$$$
C:\Users\siddh\.mgltools\PyRx\Ligands\ZINC000000039856_uff_E=351.31.pdbqt
 OpenBabel04182118313D

 21 22  0  0  1  0  0  0  0  0999 V2000
   -1.3740   -0.5290   -0.0230 N   0  0  0  0  0  0  0  0  0  0  0  0
   -2.3340   -0.3190    0.9170 C   0  0  0  0  0  2  0  0  0  0  0  0
   -3.5010   -0.9450    0.6090 N   0  0  0  0  0  0  0  0  0  0  0  0
   -4.3700   -0.9470    1.1420 H   0  0  0  0  0  0  0  0  0  0  0  0
   -3.2450   -1.5610   -0.5610 C   0  0  0  0  0  0  0  0  0  0  0  0
   -1.9660   -1.3160   -0.9500 C   0  0  0  0  0  0  0  0  0  0  0  0
   -1.4860   -1.8630   -2.1400 C   0  0  0  0  0  0  0  0  0  0  0  0
   -0.3470   -1.6670   -2.5240 O   0  0  0  0  0  0  0  0  0  0  0  0
   -2.3400   -2.6420   -2.8870 N   0  0  0  0  0  0  0  0  0  0  0  0
   -3.6390   -2.8790   -2.4730 C   0  0  0  0  0  0  0  0  0  0  0  0
   -4.3670   -3.5760   -3.1620 O   0  0  0  0  0  0  0  0  0  0  0  0
   -4.1070   -2.3290   -1.2860 N   0  0  0  0  0  0  0  0  0  0  0  0
   -5.4800   -2.5590   -0.8150 C   0  0  0  0  0  1  0  0  0  0  0  0
   -2.0020   -3.0630   -3.7830 H   0  0  0  0  0  0  0  0  0  0  0  0
   -0.0020    0.0080    0.0130 C   0  0  1  0  0  3  0  0  0  0  0  0
   -0.0320    1.5410   -0.0110 C   0  0  0  0  0  1  0  0  0  0  0  0
    0.7260   -0.5200    1.2260 C   0  0  0  0  0  3  0  0  0  0  0  0
    1.2400    0.3210    2.1470 O   0  0  0  0  0  0  0  0  0  0  0  0
    1.6890   -0.0220    2.8950 H   0  0  0  0  0  0  0  0  0  0  0  0
    0.8750   -1.8480    1.3870 O   0  0  0  0  0  0  0  0  0  0  0  0
    0.5210   -2.4400    0.7530 H   0  0  0  0  0  0  0  0  0  0  0  0
  1 15  1  0  0  0  0
  1  2  1  0  0  0  0
  3  2  1  0  0  0  0
  3  4  1  0  0  0  0
  5  3  1  0  0  0  0
  6  5  2  0  0  0  0
  6  1  1  0  0  0  0
  7  6  1  0  0  0  0
  8  7  2  0  0  0  0
  9 10  1  0  0  0  0
  9  7  1  0  0  0  0
 10 12  1  0  0  0  0
 11 10  2  0  0  0  0
 12 13  1  0  0  0  0
 12  5  1  0  0  0  0
 14  9  1  0  0  0  0
 15 16  1  1  0  0  0
 15 17  1  0  0  0  0
 17 20  1  0  0  0  0
 17 18  1  0  0  0  0
 18 19  1  0  0  0  0
 21 20  1  0  0  0  0
M  END
>  <REMARK>
  4 active torsions:
  status: ('A' for Active; 'I' for Inactive)
    1  A    between atoms: C_2  and  C_3 
    2  A    between atoms: C_2  and  N_6 
    3  A    between atoms: C_3  and  O_4 
    4  A    between atoms: C_3  and  O_5 

>  <TORSDO>
F 4

$$$$