MODEL 1
REMARK VINA RESULT:      -8.2      0.000      0.000
REMARK  4 active torsions:
REMARK  status: ('A' for Active; 'I' for Inactive)
REMARK    1  A    between atoms: N_1  and  C_2 
REMARK    2  A    between atoms: C_8  and  C_9 
REMARK    3  A    between atoms: C_14  and  C_15 
REMARK    4  A    between atoms: C_21  and  N_22 
ROOT
HETATM    1  C   ZIN N   1     -11.141  47.792  26.593  0.00  0.00     0.154 A 
HETATM    2  N   ZIN N   1     -10.697  48.432  25.498  0.00  0.00    -0.282 N 
ATOM      3  HN  ZIN N   1      -9.978  48.103  24.854  1.00  0.00     0.188 HD
HETATM    4  N   ZIN N   1     -11.364  49.565  25.413  0.00  0.00    -0.282 N 
ATOM      5  HN  ZIN N   1     -11.259  50.277  24.691  1.00  0.00     0.188 HD
HETATM    6  C   ZIN N   1     -12.210  49.607  26.456  0.00  0.00     0.154 A 
HETATM    7  N   ZIN N   1     -12.099  48.504  27.225  0.00  0.00    -0.322 N 
HETATM    8  H   ZIN N   1     -12.593  48.274  28.046  0.00  0.00     0.169 HD
ENDROOT
BRANCH   1   9
HETATM    9  C   ZIN N   1     -10.635  46.482  27.030  0.00  0.00     0.147 A 
HETATM   10  C   ZIN N   1      -9.345  46.003  26.986  0.00  0.00     0.154 A 
HETATM   11  N   ZIN N   1      -9.350  44.761  27.489  0.00  0.00    -0.224 N 
HETATM   12  O   ZIN N   1     -10.589  44.512  27.818  0.00  0.00    -0.155 OA
ATOM     13  HN  ZIN N   1      -8.550  44.136  27.595  1.00  0.00     0.198 HD
HETATM   14  N   ZIN N   1     -11.395  45.509  27.563  0.00  0.00    -0.234 N 
ATOM     15  HN  ZIN N   1     -12.400  45.542  27.734  1.00  0.00     0.197 HD
BRANCH  10  16
HETATM   16  N   ZIN N   1      -8.183  46.658  26.508  0.00  0.00    -0.382 N 
HETATM   17  H   ZIN N   1      -7.291  46.610  27.015  0.00  0.00     0.157 HD
HETATM   18  H   ZIN N   1      -8.223  47.199  25.633  0.00  0.00     0.157 HD
ENDBRANCH  10  16
ENDBRANCH   1   9
BRANCH   6  19
HETATM   19  C   ZIN N   1     -13.134  50.724  26.710  0.00  0.00     0.147 A 
HETATM   20  C   ZIN N   1     -13.584  51.205  27.919  0.00  0.00     0.154 A 
HETATM   21  N   ZIN N   1     -14.410  52.233  27.671  0.00  0.00    -0.224 N 
HETATM   22  O   ZIN N   1     -14.449  52.355  26.371  0.00  0.00    -0.155 OA
ATOM     23  HN  ZIN N   1     -14.907  52.801  28.356  1.00  0.00     0.198 HD
HETATM   24  N   ZIN N   1     -13.703  51.477  25.753  0.00  0.00    -0.234 N 
ATOM     25  HN  ZIN N   1     -13.578  51.383  24.744  1.00  0.00     0.197 HD
BRANCH  20  26
HETATM   26  N   ZIN N   1     -13.267  50.741  29.220  0.00  0.00    -0.382 N 
HETATM   27  H   ZIN N   1     -13.224  51.405  30.005  0.00  0.00     0.157 HD
HETATM   28  H   ZIN N   1     -13.077  49.749  29.404  0.00  0.00     0.157 HD
ENDBRANCH  20  26
ENDBRANCH   6  19
TORSDOF 4
ENDMDL
MODEL 2
REMARK VINA RESULT:      -8.2      0.765      6.298
REMARK  4 active torsions:
REMARK  status: ('A' for Active; 'I' for Inactive)
REMARK    1  A    between atoms: N_1  and  C_2 
REMARK    2  A    between atoms: C_8  and  C_9 
REMARK    3  A    between atoms: C_14  and  C_15 
REMARK    4  A    between atoms: C_21  and  N_22 
ROOT
HETATM    1  C   ZIN N   1     -12.121  49.801  26.635  0.00  0.00     0.154 A 
HETATM    2  N   ZIN N   1     -11.440  49.695  25.482  0.00  0.00    -0.282 N 
ATOM      3  HN  ZIN N   1     -11.391  50.393  24.741  1.00  0.00     0.188 HD
HETATM    4  N   ZIN N   1     -10.849  48.517  25.488  0.00  0.00    -0.282 N 
ATOM      5  HN  ZIN N   1     -10.255  48.134  24.752  1.00  0.00     0.188 HD
HETATM    6  C   ZIN N   1     -11.172  47.915  26.644  0.00  0.00     0.154 A 
HETATM    7  N   ZIN N   1     -11.976  48.696  27.397  0.00  0.00    -0.322 N 
HETATM    8  H   ZIN N   1     -12.363  48.505  28.283  0.00  0.00     0.169 HD
ENDROOT
BRANCH   1   9
HETATM    9  C   ZIN N   1     -12.918  50.981  27.003  0.00  0.00     0.147 A 
HETATM   10  C   ZIN N   1     -13.919  51.598  26.286  0.00  0.00     0.154 A 
HETATM   11  N   ZIN N   1     -14.363  52.636  27.008  0.00  0.00    -0.224 N 
HETATM   12  O   ZIN N   1     -13.657  52.637  28.106  0.00  0.00    -0.155 OA
ATOM     13  HN  ZIN N   1     -15.101  53.292  26.753  1.00  0.00     0.198 HD
HETATM   14  N   ZIN N   1     -12.780  51.668  28.152  0.00  0.00    -0.234 N 
ATOM     15  HN  ZIN N   1     -12.122  51.472  28.906  1.00  0.00     0.197 HD
BRANCH  10  16
HETATM   16  N   ZIN N   1     -14.429  51.244  25.012  0.00  0.00    -0.382 N 
HETATM   17  H   ZIN N   1     -14.280  51.841  24.189  0.00  0.00     0.157 HD
HETATM   18  H   ZIN N   1     -14.963  50.372  24.898  0.00  0.00     0.157 HD
ENDBRANCH  10  16
ENDBRANCH   1   9
BRANCH   6  19
HETATM   19  C   ZIN N   1     -10.701  46.575  27.023  0.00  0.00     0.147 A 
HETATM   20  C   ZIN N   1      -9.460  46.013  26.821  0.00  0.00     0.154 A 
HETATM   21  N   ZIN N   1      -9.481  44.773  27.331  0.00  0.00    -0.224 N 
HETATM   22  O   ZIN N   1     -10.682  44.605  27.815  0.00  0.00    -0.155 OA
ATOM     23  HN  ZIN N   1      -8.716  44.099  27.339  1.00  0.00     0.198 HD
HETATM   24  N   ZIN N   1     -11.448  45.653  27.655  0.00  0.00    -0.234 N 
ATOM     25  HN  ZIN N   1     -12.419  45.751  27.952  1.00  0.00     0.197 HD
BRANCH  20  26
HETATM   26  N   ZIN N   1      -8.328  46.592  26.194  0.00  0.00    -0.382 N 
HETATM   27  H   ZIN N   1      -7.519  46.003  25.951  0.00  0.00     0.157 HD
HETATM   28  H   ZIN N   1      -8.290  47.595  25.975  0.00  0.00     0.157 HD
ENDBRANCH  20  26
ENDBRANCH   6  19
TORSDOF 4
ENDMDL
MODEL 3
REMARK VINA RESULT:      -7.9     54.118     55.906
REMARK  4 active torsions:
REMARK  status: ('A' for Active; 'I' for Inactive)
REMARK    1  A    between atoms: N_1  and  C_2 
REMARK    2  A    between atoms: C_8  and  C_9 
REMARK    3  A    between atoms: C_14  and  C_15 
REMARK    4  A    between atoms: C_21  and  N_22 
ROOT
HETATM    1  C   ZIN N   1       8.255   0.847   7.779  0.00  0.00     0.154 A 
HETATM    2  N   ZIN N   1       8.920   0.523   8.901  0.00  0.00    -0.282 N 
ATOM      3  HN  ZIN N   1       8.509   0.199   9.776  1.00  0.00     0.188 HD
HETATM    4  N   ZIN N   1      10.202   0.705   8.659  0.00  0.00    -0.282 N 
ATOM      5  HN  ZIN N   1      10.970   0.546   9.312  1.00  0.00     0.188 HD
HETATM    6  C   ZIN N   1      10.311   1.136   7.392  0.00  0.00     0.154 A 
HETATM    7  N   ZIN N   1       9.101   1.239   6.802  0.00  0.00    -0.322 N 
HETATM    8  H   ZIN N   1       8.887   1.530   5.885  0.00  0.00     0.169 HD
ENDROOT
BRANCH   1   9
HETATM    9  C   ZIN N   1       6.792   0.775   7.651  0.00  0.00     0.147 A 
HETATM   10  C   ZIN N   1       6.033  -0.179   7.010  0.00  0.00     0.154 A 
HETATM   11  N   ZIN N   1       4.744   0.159   7.148  0.00  0.00    -0.224 N 
HETATM   12  O   ZIN N   1       4.736   1.266   7.840  0.00  0.00    -0.155 OA
ATOM     13  HN  ZIN N   1       3.933  -0.344   6.787  1.00  0.00     0.198 HD
HETATM   14  N   ZIN N   1       5.935   1.675   8.164  0.00  0.00    -0.234 N 
ATOM     15  HN  ZIN N   1       6.173   2.510   8.700  1.00  0.00     0.197 HD
BRANCH  10  16
HETATM   16  N   ZIN N   1       6.479  -1.331   6.315  0.00  0.00    -0.382 N 
HETATM   17  H   ZIN N   1       6.179  -2.275   6.591  0.00  0.00     0.157 HD
HETATM   18  H   ZIN N   1       7.119  -1.232   5.516  0.00  0.00     0.157 HD
ENDBRANCH  10  16
ENDBRANCH   1   9
BRANCH   6  19
HETATM   19  C   ZIN N   1      11.594   1.452   6.747  0.00  0.00     0.147 A 
HETATM   20  C   ZIN N   1      12.822   1.653   7.335  0.00  0.00     0.154 A 
HETATM   21  N   ZIN N   1      13.708   1.914   6.362  0.00  0.00    -0.224 N 
HETATM   22  O   ZIN N   1      13.033   1.871   5.244  0.00  0.00    -0.155 OA
ATOM     23  HN  ZIN N   1      14.703   2.108   6.472  1.00  0.00     0.198 HD
HETATM   24  N   ZIN N   1      11.767   1.598   5.422  0.00  0.00    -0.234 N 
ATOM     25  HN  ZIN N   1      11.052   1.513   4.698  1.00  0.00     0.197 HD
BRANCH  20  26
HETATM   26  N   ZIN N   1      13.153   1.605   8.712  0.00  0.00    -0.382 N 
HETATM   27  H   ZIN N   1      14.140   1.619   9.004  0.00  0.00     0.157 HD
HETATM   28  H   ZIN N   1      12.427   1.554   9.437  0.00  0.00     0.157 HD
ENDBRANCH  20  26
ENDBRANCH   6  19
TORSDOF 4
ENDMDL
MODEL 4
REMARK VINA RESULT:      -7.9     34.422     36.554
REMARK  4 active torsions:
REMARK  status: ('A' for Active; 'I' for Inactive)
REMARK    1  A    between atoms: N_1  and  C_2 
REMARK    2  A    between atoms: C_8  and  C_9 
REMARK    3  A    between atoms: C_14  and  C_15 
REMARK    4  A    between atoms: C_21  and  N_22 
ROOT
HETATM    1  C   ZIN N   1      -0.883  19.844   7.369  0.00  0.00     0.154 A 
HETATM    2  N   ZIN N   1      -1.500  21.024   7.188  0.00  0.00    -0.282 N 
ATOM      3  HN  ZIN N   1      -1.075  21.881   6.835  1.00  0.00     0.188 HD
HETATM    4  N   ZIN N   1      -2.755  20.865   7.555  0.00  0.00    -0.282 N 
ATOM      5  HN  ZIN N   1      -3.485  21.578   7.537  1.00  0.00     0.188 HD
HETATM    6  C   ZIN N   1      -2.895  19.591   7.954  0.00  0.00     0.154 A 
HETATM    7  N   ZIN N   1      -1.733  18.912   7.852  0.00  0.00    -0.322 N 
HETATM    8  H   ZIN N   1      -1.550  17.970   8.075  0.00  0.00     0.169 HD
ENDROOT
BRANCH   1   9
HETATM    9  C   ZIN N   1       0.539  19.615   7.071  0.00  0.00     0.147 A 
HETATM   10  C   ZIN N   1       1.093  18.832   6.082  0.00  0.00     0.154 A 
HETATM   11  N   ZIN N   1       2.426  18.921   6.184  0.00  0.00    -0.224 N 
HETATM   12  O   ZIN N   1       2.655  19.722   7.190  0.00  0.00    -0.155 OA
ATOM     13  HN  ZIN N   1       3.121  18.459   5.597  1.00  0.00     0.198 HD
HETATM   14  N   ZIN N   1       1.561  20.163   7.753  0.00  0.00    -0.234 N 
ATOM     15  HN  ZIN N   1       1.494  20.795   8.550  1.00  0.00     0.197 HD
BRANCH  10  16
HETATM   16  N   ZIN N   1       0.425  18.053   5.105  0.00  0.00    -0.382 N 
HETATM   17  H   ZIN N   1       0.324  17.035   5.206  0.00  0.00     0.157 HD
HETATM   18  H   ZIN N   1       0.028  18.506   4.270  0.00  0.00     0.157 HD
ENDBRANCH  10  16
ENDBRANCH   1   9
BRANCH   6  19
HETATM   19  C   ZIN N   1      -4.163  19.025   8.440  0.00  0.00     0.147 A 
HETATM   20  C   ZIN N   1      -4.870  19.355   9.574  0.00  0.00     0.154 A 
HETATM   21  N   ZIN N   1      -5.967  18.583   9.615  0.00  0.00    -0.224 N 
HETATM   22  O   ZIN N   1      -5.912  17.827   8.551  0.00  0.00    -0.155 OA
ATOM     23  HN  ZIN N   1      -6.694  18.585  10.330  1.00  0.00     0.198 HD
HETATM   24  N   ZIN N   1      -4.854  18.054   7.818  0.00  0.00    -0.234 N 
ATOM     25  HN  ZIN N   1      -4.603  17.586   6.945  1.00  0.00     0.197 HD
BRANCH  20  26
HETATM   26  N   ZIN N   1      -4.549  20.324  10.556  0.00  0.00    -0.382 N 
HETATM   27  H   ZIN N   1      -5.171  20.460  11.366  0.00  0.00     0.157 HD
HETATM   28  H   ZIN N   1      -3.704  20.903  10.482  0.00  0.00     0.157 HD
ENDBRANCH  20  26
ENDBRANCH   6  19
TORSDOF 4
ENDMDL
MODEL 5
REMARK VINA RESULT:      -7.9     34.409     36.778
REMARK  4 active torsions:
REMARK  status: ('A' for Active; 'I' for Inactive)
REMARK    1  A    between atoms: N_1  and  C_2 
REMARK    2  A    between atoms: C_8  and  C_9 
REMARK    3  A    between atoms: C_14  and  C_15 
REMARK    4  A    between atoms: C_21  and  N_22 
ROOT
HETATM    1  C   ZIN N   1      -2.906  19.598   7.961  0.00  0.00     0.154 A 
HETATM    2  N   ZIN N   1      -2.771  20.871   7.554  0.00  0.00    -0.282 N 
ATOM      3  HN  ZIN N   1      -3.504  21.580   7.529  1.00  0.00     0.188 HD
HETATM    4  N   ZIN N   1      -1.516  21.031   7.189  0.00  0.00    -0.282 N 
ATOM      5  HN  ZIN N   1      -1.093  21.888   6.831  1.00  0.00     0.188 HD
HETATM    6  C   ZIN N   1      -0.894  19.855   7.378  0.00  0.00     0.154 A 
HETATM    7  N   ZIN N   1      -1.740  18.923   7.866  0.00  0.00    -0.322 N 
HETATM    8  H   ZIN N   1      -1.554  17.984   8.094  0.00  0.00     0.169 HD
ENDROOT
BRANCH   1   9
HETATM    9  C   ZIN N   1      -4.172  19.029   8.448  0.00  0.00     0.147 A 
HETATM   10  C   ZIN N   1      -4.883  19.362   9.580  0.00  0.00     0.154 A 
HETATM   11  N   ZIN N   1      -5.974  18.586   9.624  0.00  0.00    -0.224 N 
HETATM   12  O   ZIN N   1      -5.916  17.825   8.564  0.00  0.00    -0.155 OA
ATOM     13  HN  ZIN N   1      -6.703  18.588  10.338  1.00  0.00     0.198 HD
HETATM   14  N   ZIN N   1      -4.859  18.051   7.830  0.00  0.00    -0.234 N 
ATOM     15  HN  ZIN N   1      -4.604  17.581   6.961  1.00  0.00     0.197 HD
BRANCH  10  16
HETATM   16  N   ZIN N   1      -4.566  20.338  10.557  0.00  0.00    -0.382 N 
HETATM   17  H   ZIN N   1      -4.194  21.260  10.295  0.00  0.00     0.157 HD
HETATM   18  H   ZIN N   1      -4.707  20.130  11.555  0.00  0.00     0.157 HD
ENDBRANCH  10  16
ENDBRANCH   1   9
BRANCH   6  19
HETATM   19  C   ZIN N   1       0.530  19.632   7.086  0.00  0.00     0.147 A 
HETATM   20  C   ZIN N   1       1.090  18.848   6.102  0.00  0.00     0.154 A 
HETATM   21  N   ZIN N   1       2.424  18.944   6.208  0.00  0.00    -0.224 N 
HETATM   22  O   ZIN N   1       2.646  19.749   7.212  0.00  0.00    -0.155 OA
ATOM     23  HN  ZIN N   1       3.121  18.482   5.625  1.00  0.00     0.198 HD
HETATM   24  N   ZIN N   1       1.547  20.186   7.768  0.00  0.00    -0.234 N 
ATOM     25  HN  ZIN N   1       1.475  20.823   8.563  1.00  0.00     0.197 HD
BRANCH  20  26
HETATM   26  N   ZIN N   1       0.429  18.061   5.126  0.00  0.00    -0.382 N 
HETATM   27  H   ZIN N   1       0.804  18.009   4.168  0.00  0.00     0.157 HD
HETATM   28  H   ZIN N   1      -0.425  17.535   5.349  0.00  0.00     0.157 HD
ENDBRANCH  20  26
ENDBRANCH   6  19
TORSDOF 4
ENDMDL
MODEL 6
REMARK VINA RESULT:      -7.9     54.085     55.783
REMARK  4 active torsions:
REMARK  status: ('A' for Active; 'I' for Inactive)
REMARK    1  A    between atoms: N_1  and  C_2 
REMARK    2  A    between atoms: C_8  and  C_9 
REMARK    3  A    between atoms: C_14  and  C_15 
REMARK    4  A    between atoms: C_21  and  N_22 
ROOT
HETATM    1  C   ZIN N   1      10.336   1.125   7.402  0.00  0.00     0.154 A 
HETATM    2  N   ZIN N   1      10.225   0.668   8.661  0.00  0.00    -0.282 N 
ATOM      3  HN  ZIN N   1      10.991   0.485   9.308  1.00  0.00     0.188 HD
HETATM    4  N   ZIN N   1       8.941   0.499   8.901  0.00  0.00    -0.282 N 
ATOM      5  HN  ZIN N   1       8.526   0.162   9.770  1.00  0.00     0.188 HD
HETATM    6  C   ZIN N   1       8.278   0.855   7.789  0.00  0.00     0.154 A 
HETATM    7  N   ZIN N   1       9.126   1.257   6.818  0.00  0.00    -0.322 N 
HETATM    8  H   ZIN N   1       8.914   1.568   5.908  0.00  0.00     0.169 HD
ENDROOT
BRANCH   1   9
HETATM    9  C   ZIN N   1      11.622   1.437   6.760  0.00  0.00     0.147 A 
HETATM   10  C   ZIN N   1      12.845   1.656   7.354  0.00  0.00     0.154 A 
HETATM   11  N   ZIN N   1      13.735   1.907   6.383  0.00  0.00    -0.224 N 
HETATM   12  O   ZIN N   1      13.069   1.840   5.262  0.00  0.00    -0.155 OA
ATOM     13  HN  ZIN N   1      14.729   2.108   6.495  1.00  0.00     0.198 HD
HETATM   14  N   ZIN N   1      11.803   1.562   5.434  0.00  0.00    -0.234 N 
ATOM     15  HN  ZIN N   1      11.094   1.461   4.708  1.00  0.00     0.197 HD
BRANCH  10  16
HETATM   16  N   ZIN N   1      13.166   1.633   8.734  0.00  0.00    -0.382 N 
HETATM   17  H   ZIN N   1      12.585   1.124   9.412  0.00  0.00     0.157 HD
HETATM   18  H   ZIN N   1      13.997   2.134   9.076  0.00  0.00     0.157 HD
ENDBRANCH  10  16
ENDBRANCH   1   9
BRANCH   6  19
HETATM   19  C   ZIN N   1       6.813   0.807   7.663  0.00  0.00     0.147 A 
HETATM   20  C   ZIN N   1       6.038  -0.142   7.036  0.00  0.00     0.154 A 
HETATM   21  N   ZIN N   1       4.753   0.220   7.173  0.00  0.00    -0.224 N 
HETATM   22  O   ZIN N   1       4.766   1.335   7.851  0.00  0.00    -0.155 OA
ATOM     23  HN  ZIN N   1       3.935  -0.274   6.818  1.00  0.00     0.198 HD
HETATM   24  N   ZIN N   1       5.972   1.727   8.168  0.00  0.00    -0.234 N 
ATOM     25  HN  ZIN N   1       6.226   2.564   8.694  1.00  0.00     0.197 HD
BRANCH  20  26
HETATM   26  N   ZIN N   1       6.462  -1.310   6.354  0.00  0.00    -0.382 N 
HETATM   27  H   ZIN N   1       7.070  -1.991   6.830  0.00  0.00     0.157 HD
HETATM   28  H   ZIN N   1       6.177  -1.498   5.385  0.00  0.00     0.157 HD
ENDBRANCH  20  26
ENDBRANCH   6  19
TORSDOF 4
ENDMDL
MODEL 7
REMARK VINA RESULT:      -7.9      2.322      6.315
REMARK  4 active torsions:
REMARK  status: ('A' for Active; 'I' for Inactive)
REMARK    1  A    between atoms: N_1  and  C_2 
REMARK    2  A    between atoms: C_8  and  C_9 
REMARK    3  A    between atoms: C_14  and  C_15 
REMARK    4  A    between atoms: C_21  and  N_22 
ROOT
HETATM    1  C   ZIN N   1     -11.355  47.540  27.447  0.00  0.00     0.154 A 
HETATM    2  N   ZIN N   1     -11.411  46.541  26.550  0.00  0.00    -0.282 N 
ATOM      3  HN  ZIN N   1     -11.743  46.609  25.588  1.00  0.00     0.188 HD
HETATM    4  N   ZIN N   1     -10.958  45.457  27.147  0.00  0.00    -0.282 N 
ATOM      5  HN  ZIN N   1     -10.873  44.529  26.733  1.00  0.00     0.188 HD
HETATM    6  C   ZIN N   1     -10.628  45.803  28.402  0.00  0.00     0.154 A 
HETATM    7  N   ZIN N   1     -10.865  47.112  28.630  0.00  0.00    -0.322 N 
HETATM    8  H   ZIN N   1     -10.717  47.628  29.456  0.00  0.00     0.169 HD
ENDROOT
BRANCH   1   9
HETATM    9  C   ZIN N   1     -11.777  48.918  27.157  0.00  0.00     0.147 A 
HETATM   10  C   ZIN N   1     -11.558  49.660  26.017  0.00  0.00     0.154 A 
HETATM   11  N   ZIN N   1     -12.122  50.863  26.194  0.00  0.00    -0.224 N 
HETATM   12  O   ZIN N   1     -12.652  50.838  27.387  0.00  0.00    -0.155 OA
ATOM     13  HN  ZIN N   1     -12.134  51.641  25.533  1.00  0.00     0.198 HD
HETATM   14  N   ZIN N   1     -12.473  49.699  28.003  0.00  0.00    -0.234 N 
ATOM     15  HN  ZIN N   1     -12.796  49.450  28.938  1.00  0.00     0.197 HD
BRANCH  10  16
HETATM   16  N   ZIN N   1     -10.871  49.274  24.839  0.00  0.00    -0.382 N 
HETATM   17  H   ZIN N   1      -9.845  49.301  24.783  0.00  0.00     0.157 HD
HETATM   18  H   ZIN N   1     -11.401  48.959  24.016  0.00  0.00     0.157 HD
ENDBRANCH  10  16
ENDBRANCH   1   9
BRANCH   6  19
HETATM   19  C   ZIN N   1     -10.080  44.859  29.388  0.00  0.00     0.147 A 
HETATM   20  C   ZIN N   1     -10.480  44.652  30.690  0.00  0.00     0.154 A 
HETATM   21  N   ZIN N   1      -9.698  43.696  31.213  0.00  0.00    -0.224 N 
HETATM   22  O   ZIN N   1      -8.870  43.352  30.264  0.00  0.00    -0.155 OA
ATOM     23  HN  ZIN N   1      -9.740  43.317  32.159  1.00  0.00     0.198 HD
HETATM   24  N   ZIN N   1      -9.058  44.018  29.155  0.00  0.00    -0.234 N 
ATOM     25  HN  ZIN N   1      -8.534  43.918  28.285  1.00  0.00     0.197 HD
BRANCH  20  26
HETATM   26  N   ZIN N   1     -11.520  45.300  31.401  0.00  0.00    -0.382 N 
HETATM   27  H   ZIN N   1     -11.628  45.140  32.412  0.00  0.00     0.157 HD
HETATM   28  H   ZIN N   1     -12.180  45.931  30.930  0.00  0.00     0.157 HD
ENDBRANCH  20  26
ENDBRANCH   6  19
TORSDOF 4
ENDMDL
MODEL 8
REMARK VINA RESULT:      -7.7     12.875     16.036
REMARK  4 active torsions:
REMARK  status: ('A' for Active; 'I' for Inactive)
REMARK    1  A    between atoms: N_1  and  C_2 
REMARK    2  A    between atoms: C_8  and  C_9 
REMARK    3  A    between atoms: C_14  and  C_15 
REMARK    4  A    between atoms: C_21  and  N_22 
ROOT
HETATM    1  C   ZIN N   1     -19.620  58.147  37.450  0.00  0.00     0.154 A 
HETATM    2  N   ZIN N   1     -20.281  58.720  36.431  0.00  0.00    -0.282 N 
ATOM      3  HN  ZIN N   1     -21.286  58.879  36.374  1.00  0.00     0.188 HD
HETATM    4  N   ZIN N   1     -19.386  59.036  35.517  0.00  0.00    -0.282 N 
ATOM      5  HN  ZIN N   1     -19.569  59.487  34.620  1.00  0.00     0.188 HD
HETATM    6  C   ZIN N   1     -18.187  58.655  35.986  0.00  0.00     0.154 A 
HETATM    7  N   ZIN N   1     -18.293  58.088  37.207  0.00  0.00    -0.322 N 
HETATM    8  H   ZIN N   1     -17.579  57.722  37.778  0.00  0.00     0.169 HD
ENDROOT
BRANCH   1   9
HETATM    9  C   ZIN N   1     -20.277  57.654  38.671  0.00  0.00     0.147 A 
HETATM   10  C   ZIN N   1     -20.589  56.356  39.011  0.00  0.00     0.154 A 
HETATM   11  N   ZIN N   1     -21.180  56.377  40.214  0.00  0.00    -0.224 N 
HETATM   12  O   ZIN N   1     -21.217  57.632  40.572  0.00  0.00    -0.155 OA
ATOM     13  HN  ZIN N   1     -21.530  55.578  40.742  1.00  0.00     0.198 HD
HETATM   14  N   ZIN N   1     -20.690  58.434  39.685  0.00  0.00    -0.234 N 
ATOM     15  HN  ZIN N   1     -20.609  59.449  39.748  1.00  0.00     0.197 HD
BRANCH  10  16
HETATM   16  N   ZIN N   1     -20.353  55.174  38.266  0.00  0.00    -0.382 N 
HETATM   17  H   ZIN N   1     -20.571  54.245  38.649  0.00  0.00     0.157 HD
HETATM   18  H   ZIN N   1     -19.954  55.235  37.320  0.00  0.00     0.157 HD
ENDBRANCH  10  16
ENDBRANCH   1   9
BRANCH   6  19
HETATM   19  C   ZIN N   1     -16.928  58.840  35.248  0.00  0.00     0.147 A 
HETATM   20  C   ZIN N   1     -16.172  57.895  34.593  0.00  0.00     0.154 A 
HETATM   21  N   ZIN N   1     -15.107  58.515  34.061  0.00  0.00    -0.224 N 
HETATM   22  O   ZIN N   1     -15.226  59.773  34.388  0.00  0.00    -0.155 OA
ATOM     23  HN  ZIN N   1     -14.358  58.090  33.515  1.00  0.00     0.198 HD
HETATM   24  N   ZIN N   1     -16.297  60.018  35.097  0.00  0.00    -0.234 N 
ATOM     25  HN  ZIN N   1     -16.595  60.923  35.462  1.00  0.00     0.197 HD
BRANCH  20  26
HETATM   26  N   ZIN N   1     -16.421  56.506  34.467  0.00  0.00    -0.382 N 
HETATM   27  H   ZIN N   1     -16.345  56.051  33.547  0.00  0.00     0.157 HD
HETATM   28  H   ZIN N   1     -16.681  55.932  35.279  0.00  0.00     0.157 HD
ENDBRANCH  20  26
ENDBRANCH   6  19
TORSDOF 4
ENDMDL
MODEL 9
REMARK VINA RESULT:      -7.7     26.667     29.114
REMARK  4 active torsions:
REMARK  status: ('A' for Active; 'I' for Inactive)
REMARK    1  A    between atoms: N_1  and  C_2 
REMARK    2  A    between atoms: C_8  and  C_9 
REMARK    3  A    between atoms: C_14  and  C_15 
REMARK    4  A    between atoms: C_21  and  N_22 
ROOT
HETATM    1  C   ZIN N   1     -28.581  65.833  40.668  0.00  0.00     0.154 A 
HETATM    2  N   ZIN N   1     -28.977  64.550  40.736  0.00  0.00    -0.282 N 
ATOM      3  HN  ZIN N   1     -28.964  63.872  39.975  1.00  0.00     0.188 HD
HETATM    4  N   ZIN N   1     -29.386  64.335  41.969  0.00  0.00    -0.282 N 
ATOM      5  HN  ZIN N   1     -29.749  63.457  42.343  1.00  0.00     0.188 HD
HETATM    6  C   ZIN N   1     -29.236  65.486  42.645  0.00  0.00     0.154 A 
HETATM    7  N   ZIN N   1     -28.730  66.457  41.856  0.00  0.00    -0.322 N 
HETATM    8  H   ZIN N   1     -28.521  67.391  42.089  0.00  0.00     0.169 HD
ENDROOT
BRANCH   1   9
HETATM    9  C   ZIN N   1     -28.055  66.458  39.446  0.00  0.00     0.147 A 
HETATM   10  C   ZIN N   1     -28.631  67.438  38.668  0.00  0.00     0.154 A 
HETATM   11  N   ZIN N   1     -27.796  67.702  37.654  0.00  0.00    -0.224 N 
HETATM   12  O   ZIN N   1     -26.769  66.913  37.821  0.00  0.00    -0.155 OA
ATOM     13  HN  ZIN N   1     -27.933  68.380  36.904  1.00  0.00     0.198 HD
HETATM   14  N   ZIN N   1     -26.876  66.150  38.877  0.00  0.00    -0.234 N 
ATOM     15  HN  ZIN N   1     -26.201  65.460  39.204  1.00  0.00     0.197 HD
BRANCH  10  16
HETATM   16  N   ZIN N   1     -29.876  68.088  38.857  0.00  0.00    -0.382 N 
HETATM   17  H   ZIN N   1     -30.764  67.623  38.630  0.00  0.00     0.157 HD
HETATM   18  H   ZIN N   1     -29.903  69.047  39.229  0.00  0.00     0.157 HD
ENDBRANCH  10  16
ENDBRANCH   1   9
BRANCH   6  19
HETATM   19  C   ZIN N   1     -29.585  65.648  44.065  0.00  0.00     0.147 A 
HETATM   20  C   ZIN N   1     -30.328  66.645  44.656  0.00  0.00     0.154 A 
HETATM   21  N   ZIN N   1     -30.391  66.387  45.971  0.00  0.00    -0.224 N 
HETATM   22  O   ZIN N   1     -29.713  65.285  46.152  0.00  0.00    -0.155 OA
ATOM     23  HN  ZIN N   1     -30.868  66.938  46.684  1.00  0.00     0.198 HD
HETATM   24  N   ZIN N   1     -29.213  64.805  45.044  0.00  0.00    -0.234 N 
ATOM     25  HN  ZIN N   1     -28.652  63.958  44.942  1.00  0.00     0.197 HD
BRANCH  20  26
HETATM   26  N   ZIN N   1     -30.941  67.764  44.040  0.00  0.00    -0.382 N 
HETATM   27  H   ZIN N   1     -31.814  68.149  44.427  0.00  0.00     0.157 HD
HETATM   28  H   ZIN N   1     -30.534  68.208  43.208  0.00  0.00     0.157 HD
ENDBRANCH  20  26
ENDBRANCH   6  19
TORSDOF 4
ENDMDL
