MODEL 1
REMARK VINA RESULT:      -8.0      0.000      0.000
REMARK  3 active torsions:
REMARK  status: ('A' for Active; 'I' for Inactive)
REMARK    1  A    between atoms: C_2  and  C_3 
REMARK    2  A    between atoms: C_2  and  N_12 
REMARK    3  A    between atoms: C_3  and  C_4 
REMARK       I    between atoms: N_12  and  C_13 
REMARK       I    between atoms: C_13  and  N_15 
REMARK       I    between atoms: N_15  and  C_16 
ROOT
HETATM    1  N   ZIN N   1     -12.897  49.855  27.808  0.00  0.00    -0.338 N 
HETATM    2  C   ZIN N   1     -11.826  49.130  27.383  0.00  0.00     0.334 C 
HETATM    3  O   ZIN N   1     -10.807  49.706  27.024  0.00  0.00    -0.247 OA
HETATM    4  N   ZIN N   1     -11.887  47.768  27.373  0.00  0.00    -0.139 N 
HETATM    5  C   ZIN N   1     -10.796  46.953  26.960  0.00  0.00     0.714 A 
HETATM    6  N   ZIN N   1      -9.597  47.407  26.555  0.00  0.00    -0.118 N 
ATOM      7  HN  ZIN N   1      -9.295  48.379  26.482  1.00  0.00     0.207 HD
HETATM    8  N   ZIN N   1      -8.892  46.325  26.271  0.00  0.00    -0.212 N 
HETATM    9  N   ZIN N   1      -9.631  45.246  26.494  0.00  0.00     0.009 NA
HETATM   10  N   ZIN N   1     -10.827  45.613  26.927  0.00  0.00    -0.113 N 
ATOM     11  HN  ZIN N   1     -11.606  45.005  27.181  1.00  0.00     0.203 HD
HETATM   12  H   ZIN N   1     -13.742  49.358  28.132  0.00  0.00     0.164 HD
HETATM   13  H   ZIN N   1     -12.756  47.299  27.677  0.00  0.00     0.189 HD
HETATM   14  H   ZIN N   1      -7.964  46.321  25.945  0.00  0.00     0.206 HD
ENDROOT
BRANCH   1  15
HETATM   15  C   ZIN N   1     -12.867  51.312  27.854  0.00  0.00     0.087 C 
HETATM   16  C   ZIN N   1     -13.534  51.869  26.594  0.00  0.00     0.032 C 
BRANCH  15  17
HETATM   17  C   ZIN N   1     -13.565  51.831  29.126  0.00  0.00     0.083 C 
BRANCH  17  18
HETATM   18  C   ZIN N   1     -12.712  51.574  30.346  0.00  0.00     0.026 A 
HETATM   19  N   ZIN N   1     -11.364  51.757  30.286  0.00  0.00    -0.367 N 
HETATM   20  C   ZIN N   1     -10.575  51.562  31.372  0.00  0.00     0.105 A 
ATOM     21  HN  ZIN N   1     -10.939  52.047  29.405  1.00  0.00     0.165 HD
HETATM   22  C   ZIN N   1     -11.151  51.151  32.574  0.00  0.00     0.104 A 
HETATM   23  N   ZIN N   1     -12.494  50.956  32.641  0.00  0.00    -0.372 N 
HETATM   24  C   ZIN N   1     -13.288  51.161  31.557  0.00  0.00     0.112 A 
ATOM     25  HN  ZIN N   1     -12.913  50.650  33.519  1.00  0.00     0.164 HD
ENDBRANCH  17  18
ENDBRANCH  15  17
ENDBRANCH   1  15
TORSDOF 3
ENDMDL
MODEL 2
REMARK VINA RESULT:      -7.8      4.522      6.820
REMARK  3 active torsions:
REMARK  status: ('A' for Active; 'I' for Inactive)
REMARK    1  A    between atoms: C_2  and  C_3 
REMARK    2  A    between atoms: C_2  and  N_12 
REMARK    3  A    between atoms: C_3  and  C_4 
REMARK       I    between atoms: N_12  and  C_13 
REMARK       I    between atoms: C_13  and  N_15 
REMARK       I    between atoms: N_15  and  C_16 
ROOT
HETATM    1  N   ZIN N   1      -9.932  43.916  27.837  0.00  0.00    -0.338 N 
HETATM    2  C   ZIN N   1     -10.619  45.089  27.761  0.00  0.00     0.334 C 
HETATM    3  O   ZIN N   1     -11.486  45.339  28.588  0.00  0.00    -0.247 OA
HETATM    4  N   ZIN N   1     -10.329  45.985  26.775  0.00  0.00    -0.139 N 
HETATM    5  C   ZIN N   1     -10.996  47.236  26.653  0.00  0.00     0.714 A 
HETATM    6  N   ZIN N   1     -11.957  47.688  27.479  0.00  0.00    -0.118 N 
ATOM      7  HN  ZIN N   1     -12.345  47.215  28.294  1.00  0.00     0.207 HD
HETATM    8  N   ZIN N   1     -12.292  48.876  27.006  0.00  0.00    -0.212 N 
HETATM    9  N   ZIN N   1     -11.563  49.145  25.931  0.00  0.00     0.009 NA
HETATM   10  N   ZIN N   1     -10.743  48.134  25.690  0.00  0.00    -0.113 N 
ATOM     11  HN  ZIN N   1     -10.065  48.055  24.932  1.00  0.00     0.203 HD
HETATM   12  H   ZIN N   1      -9.185  43.728  27.149  0.00  0.00     0.164 HD
HETATM   13  H   ZIN N   1      -9.595  45.756  26.085  0.00  0.00     0.189 HD
HETATM   14  H   ZIN N   1     -12.975  49.469  27.392  0.00  0.00     0.206 HD
ENDROOT
BRANCH   1  15
HETATM   15  C   ZIN N   1     -10.196  42.939  28.886  0.00  0.00     0.087 C 
HETATM   16  C   ZIN N   1     -10.313  41.548  28.260  0.00  0.00     0.032 C 
BRANCH  15  17
HETATM   17  C   ZIN N   1      -9.087  42.975  29.956  0.00  0.00     0.083 C 
BRANCH  17  18
HETATM   18  C   ZIN N   1      -9.660  43.327  31.308  0.00  0.00     0.026 A 
HETATM   19  N   ZIN N   1     -10.330  44.501  31.480  0.00  0.00    -0.367 N 
HETATM   20  C   ZIN N   1     -10.882  44.832  32.674  0.00  0.00     0.105 A 
ATOM     21  HN  ZIN N   1     -10.419  45.144  30.694  1.00  0.00     0.165 HD
HETATM   22  C   ZIN N   1     -10.750  43.962  33.756  0.00  0.00     0.104 A 
HETATM   23  N   ZIN N   1     -10.074  42.793  33.597  0.00  0.00    -0.372 N 
HETATM   24  C   ZIN N   1      -9.530  42.455  32.398  0.00  0.00     0.112 A 
ATOM     25  HN  ZIN N   1      -9.974  42.160  34.391  1.00  0.00     0.164 HD
ENDBRANCH  17  18
ENDBRANCH  15  17
ENDBRANCH   1  15
TORSDOF 3
ENDMDL
MODEL 3
REMARK VINA RESULT:      -7.3     55.845     59.117
REMARK  3 active torsions:
REMARK  status: ('A' for Active; 'I' for Inactive)
REMARK    1  A    between atoms: C_2  and  C_3 
REMARK    2  A    between atoms: C_2  and  N_12 
REMARK    3  A    between atoms: C_3  and  C_4 
REMARK       I    between atoms: N_12  and  C_13 
REMARK       I    between atoms: C_13  and  N_15 
REMARK       I    between atoms: N_15  and  C_16 
ROOT
HETATM    1  N   ZIN N   1      11.585  -5.440  17.739  0.00  0.00    -0.338 N 
HETATM    2  C   ZIN N   1      10.343  -5.331  17.191  0.00  0.00     0.334 C 
HETATM    3  O   ZIN N   1       9.685  -4.316  17.379  0.00  0.00    -0.247 OA
HETATM    4  N   ZIN N   1       9.845  -6.343  16.425  0.00  0.00    -0.139 N 
HETATM    5  C   ZIN N   1       8.565  -6.281  15.809  0.00  0.00     0.714 A 
HETATM    6  N   ZIN N   1       7.714  -5.242  15.886  0.00  0.00    -0.118 N 
ATOM      7  HN  ZIN N   1       7.853  -4.364  16.388  1.00  0.00     0.207 HD
HETATM    8  N   ZIN N   1       6.659  -5.601  15.176  0.00  0.00    -0.212 N 
HETATM    9  N   ZIN N   1       6.854  -6.815  14.678  0.00  0.00     0.009 NA
HETATM   10  N   ZIN N   1       8.040  -7.262  15.060  0.00  0.00    -0.113 N 
ATOM     11  HN  ZIN N   1       8.465  -8.161  14.833  1.00  0.00     0.203 HD
HETATM   12  H   ZIN N   1      12.141  -6.291  17.553  0.00  0.00     0.164 HD
HETATM   13  H   ZIN N   1      10.414  -7.193  16.280  0.00  0.00     0.189 HD
HETATM   14  H   ZIN N   1       5.854  -5.052  15.036  0.00  0.00     0.206 HD
ENDROOT
BRANCH   1  15
HETATM   15  C   ZIN N   1      12.164  -4.374  18.548  0.00  0.00     0.087 C 
HETATM   16  C   ZIN N   1      12.888  -4.989  19.747  0.00  0.00     0.032 C 
BRANCH  15  17
HETATM   17  C   ZIN N   1      13.120  -3.509  17.704  0.00  0.00     0.083 C 
BRANCH  17  18
HETATM   18  C   ZIN N   1      12.791  -2.044  17.857  0.00  0.00     0.026 A 
HETATM   19  N   ZIN N   1      13.559  -1.104  17.238  0.00  0.00    -0.367 N 
HETATM   20  C   ZIN N   1      13.271   0.218  17.332  0.00  0.00     0.105 A 
ATOM     21  HN  ZIN N   1      14.368  -1.402  16.693  1.00  0.00     0.165 HD
HETATM   22  C   ZIN N   1      12.175   0.630  18.089  0.00  0.00     0.104 A 
HETATM   23  N   ZIN N   1      11.408  -0.299  18.718  0.00  0.00    -0.372 N 
HETATM   24  C   ZIN N   1      11.688  -1.626  18.617  0.00  0.00     0.112 A 
ATOM     25  HN  ZIN N   1      10.610   0.004  19.276  1.00  0.00     0.164 HD
ENDBRANCH  17  18
ENDBRANCH  15  17
ENDBRANCH   1  15
TORSDOF 3
ENDMDL
MODEL 4
REMARK VINA RESULT:      -7.3     12.541     13.530
REMARK  3 active torsions:
REMARK  status: ('A' for Active; 'I' for Inactive)
REMARK    1  A    between atoms: C_2  and  C_3 
REMARK    2  A    between atoms: C_2  and  N_12 
REMARK    3  A    between atoms: C_3  and  C_4 
REMARK       I    between atoms: N_12  and  C_13 
REMARK       I    between atoms: C_13  and  N_15 
REMARK       I    between atoms: N_15  and  C_16 
ROOT
HETATM    1  N   ZIN N   1     -16.311  44.791  40.967  0.00  0.00    -0.338 N 
HETATM    2  C   ZIN N   1     -17.145  45.209  39.975  0.00  0.00     0.334 C 
HETATM    3  O   ZIN N   1     -17.569  46.358  39.983  0.00  0.00    -0.247 OA
HETATM    4  N   ZIN N   1     -17.493  44.353  38.972  0.00  0.00    -0.139 N 
HETATM    5  C   ZIN N   1     -18.343  44.735  37.897  0.00  0.00     0.714 A 
HETATM    6  N   ZIN N   1     -18.883  45.955  37.728  0.00  0.00    -0.118 N 
ATOM      7  HN  ZIN N   1     -18.771  46.770  38.331  1.00  0.00     0.207 HD
HETATM    8  N   ZIN N   1     -19.593  45.871  36.616  0.00  0.00    -0.212 N 
HETATM    9  N   ZIN N   1     -19.491  44.646  36.119  0.00  0.00     0.009 NA
HETATM   10  N   ZIN N   1     -18.714  43.915  36.902  0.00  0.00    -0.113 N 
ATOM     11  HN  ZIN N   1     -18.452  42.937  36.776  1.00  0.00     0.203 HD
HETATM   12  H   ZIN N   1     -15.940  43.827  40.937  0.00  0.00     0.164 HD
HETATM   13  H   ZIN N   1     -17.128  43.387  38.984  0.00  0.00     0.189 HD
HETATM   14  H   ZIN N   1     -20.114  46.605  36.219  0.00  0.00     0.206 HD
ENDROOT
BRANCH   1  15
HETATM   15  C   ZIN N   1     -15.899  45.678  42.047  0.00  0.00     0.087 C 
HETATM   16  C   ZIN N   1     -16.263  45.041  43.390  0.00  0.00     0.032 C 
BRANCH  15  17
HETATM   17  C   ZIN N   1     -14.388  45.973  41.963  0.00  0.00     0.083 C 
BRANCH  17  18
HETATM   18  C   ZIN N   1     -14.134  47.461  41.931  0.00  0.00     0.026 A 
HETATM   19  N   ZIN N   1     -12.896  47.948  42.221  0.00  0.00    -0.367 N 
HETATM   20  C   ZIN N   1     -12.629  49.276  42.171  0.00  0.00     0.105 A 
ATOM     21  HN  ZIN N   1     -12.153  47.298  42.479  1.00  0.00     0.165 HD
HETATM   22  C   ZIN N   1     -13.645  50.168  41.832  0.00  0.00     0.104 A 
HETATM   23  N   ZIN N   1     -14.887  49.694  41.552  0.00  0.00    -0.372 N 
HETATM   24  C   ZIN N   1     -15.154  48.361  41.589  0.00  0.00     0.112 A 
ATOM     25  HN  ZIN N   1     -15.632  50.348  41.309  1.00  0.00     0.164 HD
ENDBRANCH  17  18
ENDBRANCH  15  17
ENDBRANCH   1  15
TORSDOF 3
ENDMDL
MODEL 5
REMARK VINA RESULT:      -7.2      3.016      4.578
REMARK  3 active torsions:
REMARK  status: ('A' for Active; 'I' for Inactive)
REMARK    1  A    between atoms: C_2  and  C_3 
REMARK    2  A    between atoms: C_2  and  N_12 
REMARK    3  A    between atoms: C_3  and  C_4 
REMARK       I    between atoms: N_12  and  C_13 
REMARK       I    between atoms: C_13  and  N_15 
REMARK       I    between atoms: N_15  and  C_16 
ROOT
HETATM    1  N   ZIN N   1     -10.494  46.138  29.914  0.00  0.00    -0.338 N 
HETATM    2  C   ZIN N   1     -11.045  47.049  29.066  0.00  0.00     0.334 C 
HETATM    3  O   ZIN N   1     -11.995  47.727  29.436  0.00  0.00    -0.247 OA
HETATM    4  N   ZIN N   1     -10.528  47.214  27.815  0.00  0.00    -0.139 N 
HETATM    5  C   ZIN N   1     -11.044  48.163  26.889  0.00  0.00     0.714 A 
HETATM    6  N   ZIN N   1     -12.066  49.004  27.126  0.00  0.00    -0.118 N 
ATOM      7  HN  ZIN N   1     -12.614  49.086  27.983  1.00  0.00     0.207 HD
HETATM    8  N   ZIN N   1     -12.211  49.700  26.012  0.00  0.00    -0.212 N 
HETATM    9  N   ZIN N   1     -11.311  49.303  25.123  0.00  0.00     0.009 NA
HETATM   10  N   ZIN N   1     -10.568  48.341  25.648  0.00  0.00    -0.113 N 
ATOM     11  HN  ZIN N   1      -9.797  47.843  25.203  1.00  0.00     0.203 HD
HETATM   12  H   ZIN N   1      -9.677  45.590  29.600  0.00  0.00     0.164 HD
HETATM   13  H   ZIN N   1      -9.727  46.632  27.519  0.00  0.00     0.189 HD
HETATM   14  H   ZIN N   1     -12.882  50.405  25.865  0.00  0.00     0.206 HD
ENDROOT
BRANCH   1  15
HETATM   15  C   ZIN N   1     -11.003  45.944  31.267  0.00  0.00     0.087 C 
HETATM   16  C   ZIN N   1     -11.285  44.457  31.490  0.00  0.00     0.032 C 
BRANCH  15  17
HETATM   17  C   ZIN N   1     -10.002  46.483  32.307  0.00  0.00     0.083 C 
BRANCH  17  18
HETATM   18  C   ZIN N   1      -9.865  47.982  32.192  0.00  0.00     0.026 A 
HETATM   19  N   ZIN N   1     -10.962  48.779  32.318  0.00  0.00    -0.367 N 
HETATM   20  C   ZIN N   1     -10.867  50.130  32.249  0.00  0.00     0.105 A 
ATOM     21  HN  ZIN N   1     -11.875  48.349  32.469  1.00  0.00     0.165 HD
HETATM   22  C   ZIN N   1      -9.624  50.720  32.028  0.00  0.00     0.104 A 
HETATM   23  N   ZIN N   1      -8.524  49.933  31.890  0.00  0.00    -0.372 N 
HETATM   24  C   ZIN N   1      -8.615  48.579  31.971  0.00  0.00     0.112 A 
ATOM     25  HN  ZIN N   1      -7.615  50.366  31.723  1.00  0.00     0.164 HD
ENDBRANCH  17  18
ENDBRANCH  15  17
ENDBRANCH   1  15
TORSDOF 3
ENDMDL
MODEL 6
REMARK VINA RESULT:      -7.1     14.890     18.432
REMARK  3 active torsions:
REMARK  status: ('A' for Active; 'I' for Inactive)
REMARK    1  A    between atoms: C_2  and  C_3 
REMARK    2  A    between atoms: C_2  and  N_12 
REMARK    3  A    between atoms: C_3  and  C_4 
REMARK       I    between atoms: N_12  and  C_13 
REMARK       I    between atoms: C_13  and  N_15 
REMARK       I    between atoms: N_15  and  C_16 
ROOT
HETATM    1  N   ZIN N   1      -4.936  31.922  24.460  0.00  0.00    -0.338 N 
HETATM    2  C   ZIN N   1      -3.936  32.033  23.543  0.00  0.00     0.334 C 
HETATM    3  O   ZIN N   1      -3.912  32.996  22.786  0.00  0.00    -0.247 OA
HETATM    4  N   ZIN N   1      -2.961  31.083  23.480  0.00  0.00    -0.139 N 
HETATM    5  C   ZIN N   1      -1.879  31.152  22.558  0.00  0.00     0.714 A 
HETATM    6  N   ZIN N   1      -1.677  32.141  21.669  0.00  0.00    -0.118 N 
ATOM      7  HN  ZIN N   1      -2.255  32.969  21.522  1.00  0.00     0.207 HD
HETATM    8  N   ZIN N   1      -0.572  31.811  21.024  0.00  0.00    -0.212 N 
HETATM    9  N   ZIN N   1      -0.110  30.662  21.501  0.00  0.00     0.009 NA
HETATM   10  N   ZIN N   1      -0.910  30.230  22.462  0.00  0.00    -0.113 N 
ATOM     11  HN  ZIN N   1      -0.811  29.377  23.013  1.00  0.00     0.203 HD
HETATM   12  H   ZIN N   1      -4.932  31.119  25.111  0.00  0.00     0.164 HD
HETATM   13  H   ZIN N   1      -2.998  30.277  24.125  0.00  0.00     0.189 HD
HETATM   14  H   ZIN N   1      -0.156  32.336  20.304  0.00  0.00     0.206 HD
ENDROOT
BRANCH   1  15
HETATM   15  C   ZIN N   1      -5.987  32.925  24.575  0.00  0.00     0.087 C 
HETATM   16  C   ZIN N   1      -7.348  32.226  24.606  0.00  0.00     0.032 C 
BRANCH  15  17
HETATM   17  C   ZIN N   1      -5.779  33.791  25.832  0.00  0.00     0.083 C 
BRANCH  17  18
HETATM   18  C   ZIN N   1      -6.192  35.220  25.571  0.00  0.00     0.026 A 
HETATM   19  N   ZIN N   1      -6.559  36.024  26.608  0.00  0.00    -0.367 N 
HETATM   20  C   ZIN N   1      -6.906  37.320  26.410  0.00  0.00     0.105 A 
ATOM     21  HN  ZIN N   1      -6.571  35.643  27.554  1.00  0.00     0.165 HD
HETATM   22  C   ZIN N   1      -6.904  37.841  25.116  0.00  0.00     0.104 A 
HETATM   23  N   ZIN N   1      -6.550  37.044  24.074  0.00  0.00    -0.372 N 
HETATM   24  C   ZIN N   1      -6.190  35.748  24.272  0.00  0.00     0.112 A 
ATOM     25  HN  ZIN N   1      -6.554  37.424  23.127  1.00  0.00     0.164 HD
ENDBRANCH  17  18
ENDBRANCH  15  17
ENDBRANCH   1  15
TORSDOF 3
ENDMDL
MODEL 7
REMARK VINA RESULT:      -7.1      2.916      3.925
REMARK  3 active torsions:
REMARK  status: ('A' for Active; 'I' for Inactive)
REMARK    1  A    between atoms: C_2  and  C_3 
REMARK    2  A    between atoms: C_2  and  N_12 
REMARK    3  A    between atoms: C_3  and  C_4 
REMARK       I    between atoms: N_12  and  C_13 
REMARK       I    between atoms: C_13  and  N_15 
REMARK       I    between atoms: N_15  and  C_16 
ROOT
HETATM    1  N   ZIN N   1     -12.455  51.241  26.418  0.00  0.00    -0.338 N 
HETATM    2  C   ZIN N   1     -12.235  50.084  27.101  0.00  0.00     0.334 C 
HETATM    3  O   ZIN N   1     -12.445  50.042  28.306  0.00  0.00    -0.247 OA
HETATM    4  N   ZIN N   1     -11.799  48.975  26.439  0.00  0.00    -0.139 N 
HETATM    5  C   ZIN N   1     -11.571  47.731  27.091  0.00  0.00     0.714 A 
HETATM    6  N   ZIN N   1     -11.766  47.492  28.400  0.00  0.00    -0.118 N 
ATOM      7  HN  ZIN N   1     -12.096  48.150  29.107  1.00  0.00     0.207 HD
HETATM    8  N   ZIN N   1     -11.437  46.224  28.576  0.00  0.00    -0.212 N 
HETATM    9  N   ZIN N   1     -11.055  45.702  27.418  0.00  0.00     0.009 NA
HETATM   10  N   ZIN N   1     -11.131  46.626  26.472  0.00  0.00    -0.113 N 
ATOM     11  HN  ZIN N   1     -10.903  46.518  25.484  1.00  0.00     0.203 HD
HETATM   12  H   ZIN N   1     -12.299  51.257  25.397  0.00  0.00     0.164 HD
HETATM   13  H   ZIN N   1     -11.626  49.029  25.422  0.00  0.00     0.189 HD
HETATM   14  H   ZIN N   1     -11.471  45.742  29.434  0.00  0.00     0.206 HD
ENDROOT
BRANCH   1  15
HETATM   15  C   ZIN N   1     -12.940  52.444  27.083  0.00  0.00     0.087 C 
HETATM   16  C   ZIN N   1     -11.847  53.515  27.046  0.00  0.00     0.032 C 
BRANCH  15  17
HETATM   17  C   ZIN N   1     -14.235  52.949  26.417  0.00  0.00     0.083 C 
BRANCH  17  18
HETATM   18  C   ZIN N   1     -15.427  52.705  27.313  0.00  0.00     0.026 A 
HETATM   19  N   ZIN N   1     -16.649  53.199  26.971  0.00  0.00    -0.367 N 
HETATM   20  C   ZIN N   1     -17.743  52.971  27.739  0.00  0.00     0.105 A 
ATOM     21  HN  ZIN N   1     -16.743  53.750  26.118  1.00  0.00     0.165 HD
HETATM   22  C   ZIN N   1     -17.616  52.230  28.913  0.00  0.00     0.104 A 
HETATM   23  N   ZIN N   1     -16.399  51.743  29.268  0.00  0.00    -0.372 N 
HETATM   24  C   ZIN N   1     -15.302  51.960  28.494  0.00  0.00     0.112 A 
ATOM     25  HN  ZIN N   1     -16.305  51.205  30.130  1.00  0.00     0.164 HD
ENDBRANCH  17  18
ENDBRANCH  15  17
ENDBRANCH   1  15
TORSDOF 3
ENDMDL
MODEL 8
REMARK VINA RESULT:      -7.1     35.642     37.905
REMARK  3 active torsions:
REMARK  status: ('A' for Active; 'I' for Inactive)
REMARK    1  A    between atoms: C_2  and  C_3 
REMARK    2  A    between atoms: C_2  and  N_12 
REMARK    3  A    between atoms: C_3  and  C_4 
REMARK       I    between atoms: N_12  and  C_13 
REMARK       I    between atoms: C_13  and  N_15 
REMARK       I    between atoms: N_15  and  C_16 
ROOT
HETATM    1  N   ZIN N   1      -3.186  18.692   6.487  0.00  0.00    -0.338 N 
HETATM    2  C   ZIN N   1      -1.992  19.232   6.856  0.00  0.00     0.334 C 
HETATM    3  O   ZIN N   1      -1.971  20.245   7.544  0.00  0.00    -0.247 OA
HETATM    4  N   ZIN N   1      -0.828  18.637   6.471  0.00  0.00    -0.139 N 
HETATM    5  C   ZIN N   1       0.451  19.140   6.840  0.00  0.00     0.714 A 
HETATM    6  N   ZIN N   1       0.669  20.225   7.606  0.00  0.00    -0.118 N 
ATOM      7  HN  ZIN N   1      -0.032  20.837   8.025  1.00  0.00     0.207 HD
HETATM    8  N   ZIN N   1       1.983  20.330   7.697  0.00  0.00    -0.212 N 
HETATM    9  N   ZIN N   1       2.553  19.345   7.015  0.00  0.00     0.009 NA
HETATM   10  N   ZIN N   1       1.615  18.587   6.469  0.00  0.00    -0.113 N 
ATOM     11  HN  ZIN N   1       1.749  17.758   5.890  1.00  0.00     0.203 HD
HETATM   12  H   ZIN N   1      -3.191  17.823   5.929  0.00  0.00     0.164 HD
HETATM   13  H   ZIN N   1      -0.864  17.784   5.889  0.00  0.00     0.189 HD
HETATM   14  H   ZIN N   1       2.464  21.029   8.195  0.00  0.00     0.206 HD
ENDROOT
BRANCH   1  15
HETATM   15  C   ZIN N   1      -4.454  19.284   6.894  0.00  0.00     0.087 C 
HETATM   16  C   ZIN N   1      -5.111  19.948   5.681  0.00  0.00     0.032 C 
BRANCH  15  17
HETATM   17  C   ZIN N   1      -5.380  18.219   7.513  0.00  0.00     0.083 C 
BRANCH  17  18
HETATM   18  C   ZIN N   1      -5.606  18.494   8.980  0.00  0.00     0.026 A 
HETATM   19  N   ZIN N   1      -6.652  17.912   9.630  0.00  0.00    -0.367 N 
HETATM   20  C   ZIN N   1      -6.864  18.117  10.954  0.00  0.00     0.105 A 
ATOM     21  HN  ZIN N   1      -7.289  17.309   9.109  1.00  0.00     0.165 HD
HETATM   22  C   ZIN N   1      -6.004  18.952  11.666  0.00  0.00     0.104 A 
HETATM   23  N   ZIN N   1      -4.964  19.546  11.024  0.00  0.00    -0.372 N 
HETATM   24  C   ZIN N   1      -4.743  19.333   9.700  0.00  0.00     0.112 A 
ATOM     25  HN  ZIN N   1      -4.338  20.161  11.545  1.00  0.00     0.164 HD
ENDBRANCH  17  18
ENDBRANCH  15  17
ENDBRANCH   1  15
TORSDOF 3
ENDMDL
MODEL 9
REMARK VINA RESULT:      -7.1     11.194     12.595
REMARK  3 active torsions:
REMARK  status: ('A' for Active; 'I' for Inactive)
REMARK    1  A    between atoms: C_2  and  C_3 
REMARK    2  A    between atoms: C_2  and  N_12 
REMARK    3  A    between atoms: C_3  and  C_4 
REMARK       I    between atoms: N_12  and  C_13 
REMARK       I    between atoms: C_13  and  N_15 
REMARK       I    between atoms: N_15  and  C_16 
ROOT
HETATM    1  N   ZIN N   1     -22.045  45.442  24.395  0.00  0.00    -0.338 N 
HETATM    2  C   ZIN N   1     -21.620  44.796  25.515  0.00  0.00     0.334 C 
HETATM    3  O   ZIN N   1     -20.895  43.816  25.412  0.00  0.00    -0.247 OA
HETATM    4  N   ZIN N   1     -21.990  45.253  26.746  0.00  0.00    -0.139 N 
HETATM    5  C   ZIN N   1     -21.562  44.635  27.954  0.00  0.00     0.714 A 
HETATM    6  N   ZIN N   1     -20.751  43.566  28.036  0.00  0.00    -0.118 N 
ATOM      7  HN  ZIN N   1     -20.331  43.047  27.265  1.00  0.00     0.207 HD
HETATM    8  N   ZIN N   1     -20.614  43.330  29.330  0.00  0.00    -0.212 N 
HETATM    9  N   ZIN N   1     -21.315  44.222  30.017  0.00  0.00     0.009 NA
HETATM   10  N   ZIN N   1     -21.917  45.051  29.179  0.00  0.00    -0.113 N 
ATOM     11  HN  ZIN N   1     -22.522  45.838  29.415  1.00  0.00     0.203 HD
HETATM   12  H   ZIN N   1     -22.636  46.284  24.495  0.00  0.00     0.164 HD
HETATM   13  H   ZIN N   1     -22.604  46.081  26.814  0.00  0.00     0.189 HD
HETATM   14  H   ZIN N   1     -20.076  42.605  29.721  0.00  0.00     0.206 HD
ENDROOT
BRANCH   1  15
HETATM   15  C   ZIN N   1     -21.658  45.000  23.061  0.00  0.00     0.087 C 
HETATM   16  C   ZIN N   1     -22.914  44.815  22.207  0.00  0.00     0.032 C 
BRANCH  15  17
HETATM   17  C   ZIN N   1     -20.689  46.010  22.413  0.00  0.00     0.083 C 
BRANCH  17  18
HETATM   18  C   ZIN N   1     -19.679  45.299  21.545  0.00  0.00     0.026 A 
HETATM   19  N   ZIN N   1     -18.980  45.993  20.605  0.00  0.00    -0.367 N 
HETATM   20  C   ZIN N   1     -18.044  45.390  19.830  0.00  0.00     0.105 A 
ATOM     21  HN  ZIN N   1     -19.163  46.989  20.481  1.00  0.00     0.165 HD
HETATM   22  C   ZIN N   1     -17.801  44.026  19.985  0.00  0.00     0.104 A 
HETATM   23  N   ZIN N   1     -18.501  43.322  20.913  0.00  0.00    -0.372 N 
HETATM   24  C   ZIN N   1     -19.431  43.927  21.698  0.00  0.00     0.112 A 
ATOM     25  HN  ZIN N   1     -18.326  42.323  21.022  1.00  0.00     0.164 HD
ENDBRANCH  17  18
ENDBRANCH  15  17
ENDBRANCH   1  15
TORSDOF 3
ENDMDL
