MODEL 1
REMARK VINA RESULT:      -8.2      0.000      0.000
REMARK  4 active torsions:
REMARK  status: ('A' for Active; 'I' for Inactive)
REMARK    1  A    between atoms: O_1  and  C_2 
REMARK    2  A    between atoms: C_2  and  O_3 
REMARK    3  A    between atoms: C_2  and  C_4 
REMARK    4  A    between atoms: C_9  and  C_10 
REMARK       I    between atoms: C_10  and  N_12 
REMARK       I    between atoms: N_12  and  C_13 
ROOT
HETATM    1  C   ZIN N   1      -6.257 -54.606 -35.162  0.00  0.00     0.241 C 
HETATM    2  O   ZIN N   1      -5.188 -54.124 -34.812  0.00  0.00    -0.272 OA
HETATM    3  N   ZIN N   1      -6.462 -55.953 -35.107  0.00  0.00    -0.157 N 
HETATM    4  C   ZIN N   1      -5.454 -56.870 -34.690  0.00  0.00     0.713 A 
HETATM    5  N   ZIN N   1      -5.660 -58.186 -34.519  0.00  0.00    -0.118 N 
ATOM      6  HN  ZIN N   1      -6.529 -58.703 -34.650  1.00  0.00     0.207 HD
HETATM    7  N   ZIN N   1      -4.485 -58.663 -34.141  0.00  0.00    -0.212 N 
HETATM    8  N   ZIN N   1      -3.591 -57.690 -34.087  0.00  0.00     0.009 NA
HETATM    9  N   ZIN N   1      -4.173 -56.550 -34.426  0.00  0.00    -0.113 N 
ATOM     10  HN  ZIN N   1      -3.742 -55.626 -34.476  1.00  0.00     0.203 HD
HETATM   11  H   ZIN N   1      -7.391 -56.330 -35.348  0.00  0.00     0.187 HD
HETATM   12  H   ZIN N   1      -4.290 -59.663 -33.917  0.00  0.00     0.206 HD
ENDROOT
BRANCH   1  13
HETATM   13  C   ZIN N   1      -7.365 -53.678 -35.621  0.00  0.00     0.096 C 
HETATM   14  C   ZIN N   1      -8.761 -54.202 -35.236  0.00  0.00     0.097 C 
HETATM   15  C   ZIN N   1      -9.834 -53.177 -35.659  0.00  0.00     0.042 C 
HETATM   16  C   ZIN N   1      -9.632 -52.656 -37.062  0.00  0.00    -0.030 C 
HETATM   17  C   ZIN N   1      -8.488 -52.836 -37.746  0.00  0.00    -0.030 C 
HETATM   18  C   ZIN N   1      -7.286 -53.531 -37.154  0.00  0.00     0.042 C 
BRANCH  14  19
HETATM   19  C   ZIN N   1      -8.889 -54.509 -33.765  0.00  0.00     0.111 C 
BRANCH  19  20
HETATM   20  O   ZIN N   1      -9.067 -55.776 -33.345  0.00  0.00    -0.778 OA
HETATM   21  H   ZIN N   1      -9.653 -55.962 -32.638  0.00  0.00     0.167 HD
ENDBRANCH  19  20
BRANCH  19  22
HETATM   22  O   ZIN N   1      -8.831 -53.510 -32.863  0.00  0.00    -0.778 OA
HETATM   23  H   ZIN N   1      -8.000 -53.187 -32.575  0.00  0.00     0.167 HD
ENDBRANCH  19  22
ENDBRANCH  14  19
ENDBRANCH   1  13
TORSDOF 4
ENDMDL
MODEL 2
REMARK VINA RESULT:      -7.6      3.895      5.665
REMARK  4 active torsions:
REMARK  status: ('A' for Active; 'I' for Inactive)
REMARK    1  A    between atoms: O_1  and  C_2 
REMARK    2  A    between atoms: C_2  and  O_3 
REMARK    3  A    between atoms: C_2  and  C_4 
REMARK    4  A    between atoms: C_9  and  C_10 
REMARK       I    between atoms: C_10  and  N_12 
REMARK       I    between atoms: N_12  and  C_13 
ROOT
HETATM    1  C   ZIN N   1      -8.813 -55.165 -36.747  0.00  0.00     0.241 C 
HETATM    2  O   ZIN N   1      -9.534 -55.954 -36.151  0.00  0.00    -0.272 OA
HETATM    3  N   ZIN N   1      -9.336 -54.310 -37.672  0.00  0.00    -0.157 N 
HETATM    4  C   ZIN N   1     -10.716 -54.309 -38.028  0.00  0.00     0.713 A 
HETATM    5  N   ZIN N   1     -11.280 -53.409 -38.849  0.00  0.00    -0.118 N 
ATOM      6  HN  ZIN N   1     -10.829 -52.622 -39.316  1.00  0.00     0.207 HD
HETATM    7  N   ZIN N   1     -12.552 -53.767 -38.917  0.00  0.00    -0.212 N 
HETATM    8  N   ZIN N   1     -12.766 -54.842 -38.178  0.00  0.00     0.009 NA
HETATM    9  N   ZIN N   1     -11.629 -55.205 -37.606  0.00  0.00    -0.113 N 
ATOM     10  HN  ZIN N   1     -11.476 -55.995 -36.978  1.00  0.00     0.203 HD
HETATM   11  H   ZIN N   1      -8.721 -53.612 -38.116  0.00  0.00     0.187 HD
HETATM   12  H   ZIN N   1     -13.283 -53.271 -39.473  0.00  0.00     0.206 HD
ENDROOT
BRANCH   1  13
HETATM   13  C   ZIN N   1      -7.335 -55.125 -36.414  0.00  0.00     0.096 C 
HETATM   14  C   ZIN N   1      -7.081 -54.831 -34.924  0.00  0.00     0.097 C 
HETATM   15  C   ZIN N   1      -5.565 -54.884 -34.636  0.00  0.00     0.042 C 
HETATM   16  C   ZIN N   1      -4.743 -54.136 -35.658  0.00  0.00    -0.030 C 
HETATM   17  C   ZIN N   1      -5.247 -53.730 -36.838  0.00  0.00    -0.030 C 
HETATM   18  C   ZIN N   1      -6.662 -54.029 -37.266  0.00  0.00     0.042 C 
BRANCH  14  19
HETATM   19  C   ZIN N   1      -7.816 -55.775 -34.005  0.00  0.00     0.111 C 
BRANCH  19  20
HETATM   20  O   ZIN N   1      -8.868 -55.343 -33.283  0.00  0.00    -0.778 OA
HETATM   21  H   ZIN N   1      -9.600 -54.942 -33.708  0.00  0.00     0.167 HD
ENDBRANCH  19  20
BRANCH  19  22
HETATM   22  O   ZIN N   1      -7.416 -57.057 -33.899  0.00  0.00    -0.778 OA
HETATM   23  H   ZIN N   1      -7.920 -57.739 -34.296  0.00  0.00     0.167 HD
ENDBRANCH  19  22
ENDBRANCH  14  19
ENDBRANCH   1  13
TORSDOF 4
ENDMDL
MODEL 3
REMARK VINA RESULT:      -7.6     14.464     15.578
REMARK  4 active torsions:
REMARK  status: ('A' for Active; 'I' for Inactive)
REMARK    1  A    between atoms: O_1  and  C_2 
REMARK    2  A    between atoms: C_2  and  O_3 
REMARK    3  A    between atoms: C_2  and  C_4 
REMARK    4  A    between atoms: C_9  and  C_10 
REMARK       I    between atoms: C_10  and  N_12 
REMARK       I    between atoms: N_12  and  C_13 
ROOT
HETATM    1  C   ZIN N   1      -6.451 -42.643 -27.226  0.00  0.00     0.241 C 
HETATM    2  O   ZIN N   1      -5.739 -42.153 -28.092  0.00  0.00    -0.272 OA
HETATM    3  N   ZIN N   1      -6.988 -41.862 -26.245  0.00  0.00    -0.157 N 
HETATM    4  C   ZIN N   1      -6.726 -40.465 -26.143  0.00  0.00     0.713 A 
HETATM    5  N   ZIN N   1      -7.326 -39.650 -25.260  0.00  0.00    -0.118 N 
ATOM      6  HN  ZIN N   1      -8.032 -39.896 -24.565  1.00  0.00     0.207 HD
HETATM    7  N   ZIN N   1      -6.801 -38.458 -25.492  0.00  0.00    -0.212 N 
HETATM    8  N   ZIN N   1      -5.912 -38.531 -26.469  0.00  0.00     0.009 NA
HETATM    9  N   ZIN N   1      -5.845 -39.781 -26.899  0.00  0.00    -0.113 N 
ATOM     10  HN  ZIN N   1      -5.252 -40.148 -27.643  1.00  0.00     0.203 HD
HETATM   11  H   ZIN N   1      -7.634 -42.285 -25.563  0.00  0.00     0.187 HD
HETATM   12  H   ZIN N   1      -7.053 -37.585 -24.980  0.00  0.00     0.206 HD
ENDROOT
BRANCH   1  13
HETATM   13  C   ZIN N   1      -6.759 -44.126 -27.281  0.00  0.00     0.096 C 
HETATM   14  C   ZIN N   1      -8.265 -44.404 -27.447  0.00  0.00     0.097 C 
HETATM   15  C   ZIN N   1      -8.501 -45.923 -27.577  0.00  0.00     0.042 C 
HETATM   16  C   ZIN N   1      -7.738 -46.729 -26.552  0.00  0.00    -0.030 C 
HETATM   17  C   ZIN N   1      -6.743 -46.207 -25.812  0.00  0.00    -0.030 C 
HETATM   18  C   ZIN N   1      -6.266 -44.786 -25.976  0.00  0.00     0.042 C 
BRANCH  14  19
HETATM   19  C   ZIN N   1      -8.868 -43.683 -28.627  0.00  0.00     0.111 C 
BRANCH  19  20
HETATM   20  O   ZIN N   1      -9.570 -42.548 -28.448  0.00  0.00    -0.778 OA
HETATM   21  H   ZIN N   1      -9.220 -41.853 -27.927  0.00  0.00     0.167 HD
ENDBRANCH  19  20
BRANCH  19  22
HETATM   22  O   ZIN N   1      -8.709 -44.179 -29.870  0.00  0.00    -0.778 OA
HETATM   23  H   ZIN N   1      -8.392 -45.053 -29.988  0.00  0.00     0.167 HD
ENDBRANCH  19  22
ENDBRANCH  14  19
ENDBRANCH   1  13
TORSDOF 4
ENDMDL
MODEL 4
REMARK VINA RESULT:      -7.4     10.761     11.999
REMARK  4 active torsions:
REMARK  status: ('A' for Active; 'I' for Inactive)
REMARK    1  A    between atoms: O_1  and  C_2 
REMARK    2  A    between atoms: C_2  and  O_3 
REMARK    3  A    between atoms: C_2  and  C_4 
REMARK    4  A    between atoms: C_9  and  C_10 
REMARK       I    between atoms: C_10  and  N_12 
REMARK       I    between atoms: N_12  and  C_13 
ROOT
HETATM    1  C   ZIN N   1       1.253 -48.190 -30.999  0.00  0.00     0.241 C 
HETATM    2  O   ZIN N   1       1.397 -49.280 -31.535  0.00  0.00    -0.272 OA
HETATM    3  N   ZIN N   1       0.586 -48.081 -29.815  0.00  0.00    -0.157 N 
HETATM    4  C   ZIN N   1      -0.011 -49.198 -29.162  0.00  0.00     0.713 A 
HETATM    5  N   ZIN N   1      -0.576 -49.143 -27.944  0.00  0.00    -0.118 N 
ATOM      6  HN  ZIN N   1      -0.654 -48.333 -27.329  1.00  0.00     0.207 HD
HETATM    7  N   ZIN N   1      -1.007 -50.374 -27.718  0.00  0.00    -0.212 N 
HETATM    8  N   ZIN N   1      -0.729 -51.154 -28.749  0.00  0.00     0.009 NA
HETATM    9  N   ZIN N   1      -0.101 -50.441 -29.672  0.00  0.00    -0.113 N 
ATOM     10  HN  ZIN N   1       0.241 -50.765 -30.577  1.00  0.00     0.203 HD
HETATM   11  H   ZIN N   1       0.531 -47.163 -29.351  0.00  0.00     0.187 HD
HETATM   12  H   ZIN N   1      -1.495 -50.686 -26.850  0.00  0.00     0.206 HD
ENDROOT
BRANCH   1  13
HETATM   13  C   ZIN N   1       1.862 -46.965 -31.652  0.00  0.00     0.096 C 
HETATM   14  C   ZIN N   1       1.328 -46.738 -33.079  0.00  0.00     0.097 C 
HETATM   15  C   ZIN N   1       1.923 -45.437 -33.655  0.00  0.00     0.042 C 
HETATM   16  C   ZIN N   1       3.411 -45.315 -33.426  0.00  0.00    -0.030 C 
HETATM   17  C   ZIN N   1       4.079 -46.102 -32.562  0.00  0.00    -0.030 C 
HETATM   18  C   ZIN N   1       3.393 -47.140 -31.709  0.00  0.00     0.042 C 
BRANCH  14  19
HETATM   19  C   ZIN N   1      -0.179 -46.691 -33.142  0.00  0.00     0.111 C 
BRANCH  19  20
HETATM   20  O   ZIN N   1      -0.811 -45.566 -33.528  0.00  0.00    -0.778 OA
HETATM   21  H   ZIN N   1      -0.850 -45.333 -34.434  0.00  0.00     0.167 HD
ENDBRANCH  19  20
BRANCH  19  22
HETATM   22  O   ZIN N   1      -0.899 -47.779 -32.805  0.00  0.00    -0.778 OA
HETATM   23  H   ZIN N   1      -0.492 -48.487 -32.347  0.00  0.00     0.167 HD
ENDBRANCH  19  22
ENDBRANCH  14  19
ENDBRANCH   1  13
TORSDOF 4
ENDMDL
MODEL 5
REMARK VINA RESULT:      -7.4     14.292     15.570
REMARK  4 active torsions:
REMARK  status: ('A' for Active; 'I' for Inactive)
REMARK    1  A    between atoms: O_1  and  C_2 
REMARK    2  A    between atoms: C_2  and  O_3 
REMARK    3  A    between atoms: C_2  and  C_4 
REMARK    4  A    between atoms: C_9  and  C_10 
REMARK       I    between atoms: C_10  and  N_12 
REMARK       I    between atoms: N_12  and  C_13 
ROOT
HETATM    1  C   ZIN N   1      -7.772 -43.586 -26.491  0.00  0.00     0.241 C 
HETATM    2  O   ZIN N   1      -7.372 -44.713 -26.747  0.00  0.00    -0.272 OA
HETATM    3  N   ZIN N   1      -8.827 -43.053 -27.173  0.00  0.00    -0.157 N 
HETATM    4  C   ZIN N   1      -9.487 -43.742 -28.231  0.00  0.00     0.713 A 
HETATM    5  N   ZIN N   1     -10.595 -43.293 -28.844  0.00  0.00    -0.118 N 
ATOM      6  HN  ZIN N   1     -11.111 -42.435 -28.649  1.00  0.00     0.207 HD
HETATM    7  N   ZIN N   1     -10.872 -44.213 -29.754  0.00  0.00    -0.212 N 
HETATM    8  N   ZIN N   1      -9.974 -45.184 -29.712  0.00  0.00     0.009 NA
HETATM    9  N   ZIN N   1      -9.092 -44.915 -28.762  0.00  0.00    -0.113 N 
ATOM     10  HN  ZIN N   1      -8.284 -45.476 -28.491  1.00  0.00     0.203 HD
HETATM   11  H   ZIN N   1      -9.186 -42.127 -26.899  0.00  0.00     0.187 HD
HETATM   12  H   ZIN N   1     -11.683 -44.180 -30.410  0.00  0.00     0.206 HD
ENDROOT
BRANCH   1  13
HETATM   13  C   ZIN N   1      -7.103 -42.803 -25.379  0.00  0.00     0.096 C 
HETATM   14  C   ZIN N   1      -5.852 -42.049 -25.868  0.00  0.00     0.097 C 
HETATM   15  C   ZIN N   1      -5.267 -41.211 -24.712  0.00  0.00     0.042 C 
HETATM   16  C   ZIN N   1      -5.172 -41.979 -23.415  0.00  0.00    -0.030 C 
HETATM   17  C   ZIN N   1      -5.800 -43.153 -23.219  0.00  0.00    -0.030 C 
HETATM   18  C   ZIN N   1      -6.696 -43.780 -24.258  0.00  0.00     0.042 C 
BRANCH  14  19
HETATM   19  C   ZIN N   1      -6.127 -41.166 -27.060  0.00  0.00     0.111 C 
BRANCH  19  20
HETATM   20  O   ZIN N   1      -7.104 -40.240 -27.013  0.00  0.00    -0.778 OA
HETATM   21  H   ZIN N   1      -7.941 -40.454 -26.651  0.00  0.00     0.167 HD
ENDBRANCH  19  20
BRANCH  19  22
HETATM   22  O   ZIN N   1      -5.395 -41.306 -28.182  0.00  0.00    -0.778 OA
HETATM   23  H   ZIN N   1      -4.469 -41.168 -28.158  0.00  0.00     0.167 HD
ENDBRANCH  19  22
ENDBRANCH  14  19
ENDBRANCH   1  13
TORSDOF 4
ENDMDL
MODEL 6
REMARK VINA RESULT:      -7.3     19.469     20.368
REMARK  4 active torsions:
REMARK  status: ('A' for Active; 'I' for Inactive)
REMARK    1  A    between atoms: O_1  and  C_2 
REMARK    2  A    between atoms: C_2  and  O_3 
REMARK    3  A    between atoms: C_2  and  C_4 
REMARK    4  A    between atoms: C_9  and  C_10 
REMARK       I    between atoms: C_10  and  N_12 
REMARK       I    between atoms: N_12  and  C_13 
ROOT
HETATM    1  C   ZIN N   1      -6.152 -38.332 -24.697  0.00  0.00     0.241 C 
HETATM    2  O   ZIN N   1      -7.345 -38.598 -24.759  0.00  0.00    -0.272 OA
HETATM    3  N   ZIN N   1      -5.262 -38.933 -25.537  0.00  0.00    -0.157 N 
HETATM    4  C   ZIN N   1      -5.648 -39.919 -26.490  0.00  0.00     0.713 A 
HETATM    5  N   ZIN N   1      -4.817 -40.446 -27.405  0.00  0.00    -0.118 N 
ATOM      6  HN  ZIN N   1      -3.832 -40.226 -27.552  1.00  0.00     0.207 HD
HETATM    7  N   ZIN N   1      -5.560 -41.313 -28.074  0.00  0.00    -0.212 N 
HETATM    8  N   ZIN N   1      -6.792 -41.328 -27.593  0.00  0.00     0.009 NA
HETATM    9  N   ZIN N   1      -6.877 -40.460 -26.597  0.00  0.00    -0.113 N 
ATOM     10  HN  ZIN N   1      -7.698 -40.247 -26.031  1.00  0.00     0.203 HD
HETATM   11  H   ZIN N   1      -4.272 -38.648 -25.509  0.00  0.00     0.187 HD
HETATM   12  H   ZIN N   1      -5.224 -41.900 -28.869  0.00  0.00     0.206 HD
ENDROOT
BRANCH   1  13
HETATM   13  C   ZIN N   1      -5.683 -37.294 -23.696  0.00  0.00     0.096 C 
HETATM   14  C   ZIN N   1      -5.316 -35.958 -24.370  0.00  0.00     0.097 C 
HETATM   15  C   ZIN N   1      -4.926 -34.924 -23.293  0.00  0.00     0.042 C 
HETATM   16  C   ZIN N   1      -3.980 -35.481 -22.256  0.00  0.00    -0.030 C 
HETATM   17  C   ZIN N   1      -3.746 -36.798 -22.119  0.00  0.00    -0.030 C 
HETATM   18  C   ZIN N   1      -4.446 -37.841 -22.954  0.00  0.00     0.042 C 
BRANCH  14  19
HETATM   19  C   ZIN N   1      -6.425 -35.412 -25.235  0.00  0.00     0.111 C 
BRANCH  19  20
HETATM   20  O   ZIN N   1      -7.553 -34.932 -24.676  0.00  0.00    -0.778 OA
HETATM   21  H   ZIN N   1      -7.515 -34.449 -23.875  0.00  0.00     0.167 HD
ENDBRANCH  19  20
BRANCH  19  22
HETATM   22  O   ZIN N   1      -6.292 -35.409 -26.575  0.00  0.00    -0.778 OA
HETATM   23  H   ZIN N   1      -5.450 -35.275 -26.962  0.00  0.00     0.167 HD
ENDBRANCH  19  22
ENDBRANCH  14  19
ENDBRANCH   1  13
TORSDOF 4
ENDMDL
MODEL 7
REMARK VINA RESULT:      -7.3     10.528     12.099
REMARK  4 active torsions:
REMARK  status: ('A' for Active; 'I' for Inactive)
REMARK    1  A    between atoms: O_1  and  C_2 
REMARK    2  A    between atoms: C_2  and  O_3 
REMARK    3  A    between atoms: C_2  and  C_4 
REMARK    4  A    between atoms: C_9  and  C_10 
REMARK       I    between atoms: C_10  and  N_12 
REMARK       I    between atoms: N_12  and  C_13 
ROOT
HETATM    1  C   ZIN N   1       1.565 -49.000 -30.864  0.00  0.00     0.241 C 
HETATM    2  O   ZIN N   1       2.391 -48.109 -30.709  0.00  0.00    -0.272 OA
HETATM    3  N   ZIN N   1       0.463 -48.797 -31.641  0.00  0.00    -0.157 N 
HETATM    4  C   ZIN N   1       0.185 -47.550 -32.273  0.00  0.00     0.713 A 
HETATM    5  N   ZIN N   1      -0.829 -47.353 -33.132  0.00  0.00    -0.118 N 
ATOM      6  HN  ZIN N   1      -1.517 -48.034 -33.451  1.00  0.00     0.207 HD
HETATM    7  N   ZIN N   1      -0.735 -46.078 -33.474  0.00  0.00    -0.212 N 
HETATM    8  N   ZIN N   1       0.284 -45.510 -32.852  0.00  0.00     0.009 NA
HETATM    9  N   ZIN N   1       0.882 -46.413 -32.091  0.00  0.00    -0.113 N 
ATOM     10  HN  ZIN N   1       1.698 -46.275 -31.493  1.00  0.00     0.203 HD
HETATM   11  H   ZIN N   1      -0.186 -49.580 -31.807  0.00  0.00     0.187 HD
HETATM   12  H   ZIN N   1      -1.373 -45.590 -34.141  0.00  0.00     0.206 HD
ENDROOT
BRANCH   1  13
HETATM   13  C   ZIN N   1       1.806 -50.346 -30.209  0.00  0.00     0.096 C 
HETATM   14  C   ZIN N   1       1.147 -50.445 -28.821  0.00  0.00     0.097 C 
HETATM   15  C   ZIN N   1       1.360 -51.861 -28.246  0.00  0.00     0.042 C 
HETATM   16  C   ZIN N   1       2.781 -52.352 -28.395  0.00  0.00    -0.030 C 
HETATM   17  C   ZIN N   1       3.675 -51.750 -29.199  0.00  0.00    -0.030 C 
HETATM   18  C   ZIN N   1       3.326 -50.563 -30.063  0.00  0.00     0.042 C 
BRANCH  14  19
HETATM   19  C   ZIN N   1      -0.324 -50.110 -28.843  0.00  0.00     0.111 C 
BRANCH  19  20
HETATM   20  O   ZIN N   1      -0.805 -49.099 -28.095  0.00  0.00    -0.778 OA
HETATM   21  H   ZIN N   1      -0.222 -48.472 -27.716  0.00  0.00     0.167 HD
ENDBRANCH  19  20
BRANCH  19  22
HETATM   22  O   ZIN N   1      -1.164 -50.830 -29.611  0.00  0.00    -0.778 OA
HETATM   23  H   ZIN N   1      -1.592 -50.427 -30.341  0.00  0.00     0.167 HD
ENDBRANCH  19  22
ENDBRANCH  14  19
ENDBRANCH   1  13
TORSDOF 4
ENDMDL
MODEL 8
REMARK VINA RESULT:      -7.2      2.836      3.895
REMARK  4 active torsions:
REMARK  status: ('A' for Active; 'I' for Inactive)
REMARK    1  A    between atoms: O_1  and  C_2 
REMARK    2  A    between atoms: C_2  and  O_3 
REMARK    3  A    between atoms: C_2  and  C_4 
REMARK    4  A    between atoms: C_9  and  C_10 
REMARK       I    between atoms: C_10  and  N_12 
REMARK       I    between atoms: N_12  and  C_13 
ROOT
HETATM    1  C   ZIN N   1      -9.306 -53.036 -35.358  0.00  0.00     0.241 C 
HETATM    2  O   ZIN N   1      -8.305 -52.785 -36.016  0.00  0.00    -0.272 OA
HETATM    3  N   ZIN N   1      -9.311 -54.072 -34.471  0.00  0.00    -0.157 N 
HETATM    4  C   ZIN N   1      -8.192 -54.935 -34.287  0.00  0.00     0.713 A 
HETATM    5  N   ZIN N   1      -8.125 -55.889 -33.345  0.00  0.00    -0.118 N 
ATOM      6  HN  ZIN N   1      -8.830 -56.126 -32.647  1.00  0.00     0.207 HD
HETATM    7  N   ZIN N   1      -6.941 -56.453 -33.521  0.00  0.00    -0.212 N 
HETATM    8  N   ZIN N   1      -6.306 -55.880 -34.529  0.00  0.00     0.009 NA
HETATM    9  N   ZIN N   1      -7.068 -54.920 -35.029  0.00  0.00    -0.113 N 
ATOM     10  HN  ZIN N   1      -6.850 -54.301 -35.811  1.00  0.00     0.203 HD
HETATM   11  H   ZIN N   1     -10.143 -54.227 -33.883  0.00  0.00     0.187 HD
HETATM   12  H   ZIN N   1      -6.561 -57.237 -32.946  0.00  0.00     0.206 HD
ENDROOT
BRANCH   1  13
HETATM   13  C   ZIN N   1     -10.530 -52.156 -35.517  0.00  0.00     0.096 C 
HETATM   14  C   ZIN N   1     -11.253 -52.398 -36.855  0.00  0.00     0.097 C 
HETATM   15  C   ZIN N   1     -12.529 -51.532 -36.918  0.00  0.00     0.042 C 
HETATM   16  C   ZIN N   1     -12.297 -50.105 -36.485  0.00  0.00    -0.030 C 
HETATM   17  C   ZIN N   1     -11.184 -49.715 -35.837  0.00  0.00    -0.030 C 
HETATM   18  C   ZIN N   1     -10.093 -50.678 -35.441  0.00  0.00     0.042 C 
BRANCH  14  19
HETATM   19  C   ZIN N   1     -11.599 -53.849 -37.081  0.00  0.00     0.111 C 
BRANCH  19  20
HETATM   20  O   ZIN N   1     -12.617 -54.420 -36.410  0.00  0.00    -0.778 OA
HETATM   21  H   ZIN N   1     -12.544 -55.301 -36.100  0.00  0.00     0.167 HD
ENDBRANCH  19  20
BRANCH  19  22
HETATM   22  O   ZIN N   1     -10.883 -54.581 -37.957  0.00  0.00    -0.778 OA
HETATM   23  H   ZIN N   1     -10.213 -55.157 -37.647  0.00  0.00     0.167 HD
ENDBRANCH  19  22
ENDBRANCH  14  19
ENDBRANCH   1  13
TORSDOF 4
ENDMDL
MODEL 9
REMARK VINA RESULT:      -7.2     13.562     14.746
REMARK  4 active torsions:
REMARK  status: ('A' for Active; 'I' for Inactive)
REMARK    1  A    between atoms: O_1  and  C_2 
REMARK    2  A    between atoms: C_2  and  O_3 
REMARK    3  A    between atoms: C_2  and  C_4 
REMARK    4  A    between atoms: C_9  and  C_10 
REMARK       I    between atoms: C_10  and  N_12 
REMARK       I    between atoms: N_12  and  C_13 
ROOT
HETATM    1  C   ZIN N   1      -8.178 -44.516 -26.067  0.00  0.00     0.241 C 
HETATM    2  O   ZIN N   1      -6.992 -44.212 -26.088  0.00  0.00    -0.272 OA
HETATM    3  N   ZIN N   1      -9.057 -43.825 -25.285  0.00  0.00    -0.157 N 
HETATM    4  C   ZIN N   1      -8.655 -42.758 -24.430  0.00  0.00     0.713 A 
HETATM    5  N   ZIN N   1      -9.509 -41.989 -23.737  0.00  0.00    -0.118 N 
ATOM      6  HN  ZIN N   1     -10.527 -42.045 -23.722  1.00  0.00     0.207 HD
HETATM    7  N   ZIN N   1      -8.737 -41.140 -23.078  0.00  0.00    -0.212 N 
HETATM    8  N   ZIN N   1      -7.463 -41.376 -23.345  0.00  0.00     0.009 NA
HETATM    9  N   ZIN N   1      -7.382 -42.388 -24.195  0.00  0.00    -0.113 N 
ATOM     10  HN  ZIN N   1      -6.534 -42.799 -24.587  1.00  0.00     0.203 HD
HETATM   11  H   ZIN N   1     -10.060 -44.058 -25.330  0.00  0.00     0.187 HD
HETATM   12  H   ZIN N   1      -9.082 -40.390 -22.439  0.00  0.00     0.206 HD
ENDROOT
BRANCH   1  13
HETATM   13  C   ZIN N   1      -8.662 -45.647 -26.951  0.00  0.00     0.096 C 
HETATM   14  C   ZIN N   1      -9.747 -45.189 -27.943  0.00  0.00     0.097 C 
HETATM   15  C   ZIN N   1     -10.137 -46.364 -28.865  0.00  0.00     0.042 C 
HETATM   16  C   ZIN N   1     -10.360 -47.655 -28.114  0.00  0.00    -0.030 C 
HETATM   17  C   ZIN N   1      -9.973 -47.828 -26.837  0.00  0.00    -0.030 C 
HETATM   18  C   ZIN N   1      -9.235 -46.767 -26.059  0.00  0.00     0.042 C 
BRANCH  14  19
HETATM   19  C   ZIN N   1      -9.323 -44.000 -28.770  0.00  0.00     0.111 C 
BRANCH  19  20
HETATM   20  O   ZIN N   1      -8.505 -44.162 -29.829  0.00  0.00    -0.778 OA
HETATM   21  H   ZIN N   1      -7.630 -44.470 -29.707  0.00  0.00     0.167 HD
ENDBRANCH  19  20
BRANCH  19  22
HETATM   22  O   ZIN N   1      -9.759 -42.767 -28.447  0.00  0.00    -0.778 OA
HETATM   23  H   ZIN N   1      -9.329 -42.280 -27.773  0.00  0.00     0.167 HD
ENDBRANCH  19  22
ENDBRANCH  14  19
ENDBRANCH   1  13
TORSDOF 4
ENDMDL
