MODEL 1
REMARK VINA RESULT:      -9.2      0.000      0.000
REMARK  0 active torsions:
REMARK  status: ('A' for Active; 'I' for Inactive)
REMARK       I    between atoms: C_9  and  N_10 
ROOT
HETATM    1  C   <0> N   1      17.592 -30.908 -29.559  0.00  0.00     0.069 C 
HETATM    2  C   <0> N   1      17.559 -29.414 -29.544  0.00  0.00     0.028 A 
HETATM    3  C   <0> N   1      18.495 -28.682 -30.313  0.00  0.00     0.102 A 
HETATM    4  C   <0> N   1      18.445 -27.281 -30.283  0.00  0.00     0.284 A 
HETATM    5  O   <0> N   1      19.230 -26.610 -30.930  0.00  0.00    -0.266 OA
HETATM    6  N   <0> N   1      17.491 -26.694 -29.507  0.00  0.00    -0.033 N 
HETATM    7  N   <0> N   1      17.248 -25.411 -29.317  0.00  0.00    -0.107 N 
ATOM      8  HN  <0> N   1      17.744 -24.620 -29.727  1.00  0.00     0.207 HD
HETATM    9  C   <0> N   1      16.198 -25.368 -28.458  0.00  0.00     0.724 A 
HETATM   10  N   <0> N   1      15.599 -24.165 -27.978  0.00  0.00    -0.081 N 
HETATM   11  C   <0> N   1      15.978 -22.922 -28.303  0.00  0.00     0.246 A 
HETATM   12  O   <0> N   1      16.901 -22.675 -29.066  0.00  0.00    -0.272 OA
HETATM   13  C   <0> N   1      15.151 -21.867 -27.632  0.00  0.00     0.113 A 
HETATM   14  C   <0> N   1      14.150 -22.713 -26.798  0.00  0.00     0.113 A 
HETATM   15  C   <0> N   1      14.565 -24.113 -27.128  0.00  0.00     0.246 A 
HETATM   16  O   <0> N   1      14.019 -25.106 -26.671  0.00  0.00    -0.272 OA
HETATM   17  N   <0> N   1      15.778 -26.614 -28.106  0.00  0.00    -0.018 N 
HETATM   18  C   <0> N   1      16.619 -27.402 -28.790  0.00  0.00     0.722 A 
HETATM   19  N   <0> N   1      16.627 -28.757 -28.787  0.00  0.00    -0.193 N 
ATOM     20  HN  <0> N   1      15.948 -29.278 -28.231  1.00  0.00     0.184 HD
HETATM   21  H   <0> N   1      15.042 -26.870 -27.504  0.00  0.00     0.203 HD
ENDROOT
TORSDOF 0
ENDMDL
MODEL 2
REMARK VINA RESULT:      -8.7      1.682      2.080
REMARK  0 active torsions:
REMARK  status: ('A' for Active; 'I' for Inactive)
REMARK       I    between atoms: C_9  and  N_10 
ROOT
HETATM    1  C   <0> N   1      17.757 -29.188 -29.222  0.00  0.00     0.069 C 
HETATM    2  C   <0> N   1      17.135 -27.832 -29.310  0.00  0.00     0.028 A 
HETATM    3  C   <0> N   1      17.444 -26.986 -30.401  0.00  0.00     0.102 A 
HETATM    4  C   <0> N   1      16.848 -25.718 -30.461  0.00  0.00     0.284 A 
HETATM    5  O   <0> N   1      17.084 -24.955 -31.382  0.00  0.00    -0.266 OA
HETATM    6  N   <0> N   1      15.996 -25.366 -29.457  0.00  0.00    -0.033 N 
HETATM    7  N   <0> N   1      15.324 -24.242 -29.294  0.00  0.00    -0.107 N 
ATOM      8  HN  <0> N   1      15.325 -23.426 -29.905  1.00  0.00     0.207 HD
HETATM    9  C   <0> N   1      14.630 -24.404 -28.139  0.00  0.00     0.724 A 
HETATM   10  N   <0> N   1      13.760 -23.421 -27.578  0.00  0.00    -0.081 N 
HETATM   11  C   <0> N   1      13.502 -22.217 -28.103  0.00  0.00     0.246 A 
HETATM   12  O   <0> N   1      13.995 -21.817 -29.148  0.00  0.00    -0.272 OA
HETATM   13  C   <0> N   1      12.545 -21.413 -27.276  0.00  0.00     0.113 A 
HETATM   14  C   <0> N   1      12.244 -22.374 -26.094  0.00  0.00     0.113 A 
HETATM   15  C   <0> N   1      13.074 -23.571 -26.437  0.00  0.00     0.246 A 
HETATM   16  O   <0> N   1      13.123 -24.581 -25.749  0.00  0.00    -0.272 OA
HETATM   17  N   <0> N   1      14.860 -25.620 -27.573  0.00  0.00    -0.018 N 
HETATM   18  C   <0> N   1      15.720 -26.177 -28.438  0.00  0.00     0.722 A 
HETATM   19  N   <0> N   1      16.269 -27.412 -28.335  0.00  0.00    -0.193 N 
ATOM     20  HN  <0> N   1      16.042 -28.018 -27.546  1.00  0.00     0.184 HD
HETATM   21  H   <0> N   1      14.489 -25.995 -26.742  0.00  0.00     0.203 HD
ENDROOT
TORSDOF 0
ENDMDL
MODEL 3
REMARK VINA RESULT:      -8.6     11.757     15.037
REMARK  0 active torsions:
REMARK  status: ('A' for Active; 'I' for Inactive)
REMARK       I    between atoms: C_9  and  N_10 
ROOT
HETATM    1  C   <0> N   1      12.116 -15.552 -13.799  0.00  0.00     0.069 C 
HETATM    2  C   <0> N   1      12.901 -15.700 -15.062  0.00  0.00     0.028 A 
HETATM    3  C   <0> N   1      14.283 -15.398 -15.071  0.00  0.00     0.102 A 
HETATM    4  C   <0> N   1      14.999 -15.544 -16.268  0.00  0.00     0.284 A 
HETATM    5  O   <0> N   1      16.191 -15.298 -16.322  0.00  0.00    -0.266 OA
HETATM    6  N   <0> N   1      14.318 -15.972 -17.369  0.00  0.00    -0.033 N 
HETATM    7  N   <0> N   1      14.766 -16.183 -18.592  0.00  0.00    -0.107 N 
ATOM      8  HN  <0> N   1      15.719 -16.060 -18.932  1.00  0.00     0.207 HD
HETATM    9  C   <0> N   1      13.686 -16.599 -19.302  0.00  0.00     0.724 A 
HETATM   10  N   <0> N   1      13.717 -16.943 -20.687  0.00  0.00    -0.081 N 
HETATM   11  C   <0> N   1      14.800 -16.910 -21.474  0.00  0.00     0.246 A 
HETATM   12  O   <0> N   1      15.909 -16.574 -21.083  0.00  0.00    -0.272 OA
HETATM   13  C   <0> N   1      14.509 -17.329 -22.884  0.00  0.00     0.113 A 
HETATM   14  C   <0> N   1      12.988 -17.639 -22.827  0.00  0.00     0.113 A 
HETATM   15  C   <0> N   1      12.657 -17.350 -21.396  0.00  0.00     0.246 A 
HETATM   16  O   <0> N   1      11.537 -17.472 -20.923  0.00  0.00    -0.272 OA
HETATM   17  N   <0> N   1      12.563 -16.651 -18.536  0.00  0.00    -0.018 N 
HETATM   18  C   <0> N   1      13.016 -16.250 -17.339  0.00  0.00     0.722 A 
HETATM   19  N   <0> N   1      12.282 -16.125 -16.208  0.00  0.00    -0.193 N 
ATOM     20  HN  <0> N   1      11.285 -16.345 -16.208  1.00  0.00     0.184 HD
HETATM   21  H   <0> N   1      11.651 -16.917 -18.794  0.00  0.00     0.203 HD
ENDROOT
TORSDOF 0
ENDMDL
MODEL 4
REMARK VINA RESULT:      -8.5     12.909     15.997
REMARK  0 active torsions:
REMARK  status: ('A' for Active; 'I' for Inactive)
REMARK       I    between atoms: C_9  and  N_10 
ROOT
HETATM    1  C   <0> N   1      19.297 -14.397 -12.866  0.00  0.00     0.069 C 
HETATM    2  C   <0> N   1      18.398 -14.935 -13.932  0.00  0.00     0.028 A 
HETATM    3  C   <0> N   1      16.995 -14.814 -13.797  0.00  0.00     0.102 A 
HETATM    4  C   <0> N   1      16.172 -15.328 -14.809  0.00  0.00     0.284 A 
HETATM    5  O   <0> N   1      14.958 -15.245 -14.736  0.00  0.00    -0.266 OA
HETATM    6  N   <0> N   1      16.774 -15.922 -15.879  0.00  0.00    -0.033 N 
HETATM    7  N   <0> N   1      16.220 -16.474 -16.942  0.00  0.00    -0.107 N 
ATOM      8  HN  <0> N   1      15.226 -16.551 -17.152  1.00  0.00     0.207 HD
HETATM    9  C   <0> N   1      17.258 -16.916 -17.697  0.00  0.00     0.724 A 
HETATM   10  N   <0> N   1      17.114 -17.583 -18.951  0.00  0.00    -0.081 N 
HETATM   11  C   <0> N   1      15.953 -17.861 -19.557  0.00  0.00     0.246 A 
HETATM   12  O   <0> N   1      14.861 -17.567 -19.093  0.00  0.00    -0.272 OA
HETATM   13  C   <0> N   1      16.134 -18.571 -20.865  0.00  0.00     0.113 A 
HETATM   14  C   <0> N   1      17.680 -18.688 -20.965  0.00  0.00     0.113 A 
HETATM   15  C   <0> N   1      18.132 -18.026 -19.701  0.00  0.00     0.246 A 
HETATM   16  O   <0> N   1      19.305 -17.901 -19.385  0.00  0.00    -0.272 OA
HETATM   17  N   <0> N   1      18.459 -16.648 -17.118  0.00  0.00    -0.018 N 
HETATM   18  C   <0> N   1      18.097 -16.027 -15.986  0.00  0.00     0.722 A 
HETATM   19  N   <0> N   1      18.933 -15.546 -15.035  0.00  0.00    -0.193 N 
ATOM     20  HN  <0> N   1      19.945 -15.636 -15.139  1.00  0.00     0.184 HD
HETATM   21  H   <0> N   1      19.363 -16.855 -17.447  0.00  0.00     0.203 HD
ENDROOT
TORSDOF 0
ENDMDL
MODEL 5
REMARK VINA RESULT:      -8.2      2.357      6.062
REMARK  0 active torsions:
REMARK  status: ('A' for Active; 'I' for Inactive)
REMARK       I    between atoms: C_9  and  N_10 
ROOT
HETATM    1  C   <0> N   1      13.429 -21.875 -25.254  0.00  0.00     0.069 C 
HETATM    2  C   <0> N   1      13.779 -22.577 -26.526  0.00  0.00     0.028 A 
HETATM    3  C   <0> N   1      12.867 -22.571 -27.607  0.00  0.00     0.102 A 
HETATM    4  C   <0> N   1      13.218 -23.238 -28.790  0.00  0.00     0.284 A 
HETATM    5  O   <0> N   1      12.465 -23.258 -29.748  0.00  0.00    -0.266 OA
HETATM    6  N   <0> N   1      14.430 -23.862 -28.834  0.00  0.00    -0.033 N 
HETATM    7  N   <0> N   1      14.976 -24.546 -29.822  0.00  0.00    -0.107 N 
ATOM      8  HN  <0> N   1      14.577 -24.728 -30.742  1.00  0.00     0.207 HD
HETATM    9  C   <0> N   1      16.181 -24.954 -29.351  0.00  0.00     0.724 A 
HETATM   10  N   <0> N   1      17.117 -25.731 -30.099  0.00  0.00    -0.081 N 
HETATM   11  C   <0> N   1      16.944 -26.161 -31.356  0.00  0.00     0.246 A 
HETATM   12  O   <0> N   1      15.943 -25.928 -32.018  0.00  0.00    -0.272 OA
HETATM   13  C   <0> N   1      18.109 -26.957 -31.864  0.00  0.00     0.113 A 
HETATM   14  C   <0> N   1      19.073 -26.943 -30.646  0.00  0.00     0.113 A 
HETATM   15  C   <0> N   1      18.306 -26.142 -29.641  0.00  0.00     0.246 A 
HETATM   16  O   <0> N   1      18.721 -25.887 -28.520  0.00  0.00    -0.272 OA
HETATM   17  N   <0> N   1      16.398 -24.533 -28.076  0.00  0.00    -0.018 N 
HETATM   18  C   <0> N   1      15.273 -23.856 -27.804  0.00  0.00     0.722 A 
HETATM   19  N   <0> N   1      14.980 -23.226 -26.641  0.00  0.00    -0.193 N 
ATOM     20  HN  <0> N   1      15.643 -23.234 -25.865  1.00  0.00     0.184 HD
HETATM   21  H   <0> N   1      17.182 -24.685 -27.500  0.00  0.00     0.203 HD
ENDROOT
TORSDOF 0
ENDMDL
MODEL 6
REMARK VINA RESULT:      -8.1      2.358      3.245
REMARK  0 active torsions:
REMARK  status: ('A' for Active; 'I' for Inactive)
REMARK       I    between atoms: C_9  and  N_10 
ROOT
HETATM    1  C   <0> N   1      18.309 -27.497 -30.061  0.00  0.00     0.069 C 
HETATM    2  C   <0> N   1      17.221 -26.474 -30.022  0.00  0.00     0.028 A 
HETATM    3  C   <0> N   1      16.961 -25.680 -31.164  0.00  0.00     0.102 A 
HETATM    4  C   <0> N   1      15.935 -24.726 -31.103  0.00  0.00     0.284 A 
HETATM    5  O   <0> N   1      15.674 -24.020 -32.063  0.00  0.00    -0.266 OA
HETATM    6  N   <0> N   1      15.237 -24.614 -29.938  0.00  0.00    -0.033 N 
HETATM    7  N   <0> N   1      14.241 -23.800 -29.641  0.00  0.00    -0.107 N 
ATOM      8  HN  <0> N   1      13.812 -23.101 -30.246  1.00  0.00     0.207 HD
HETATM    9  C   <0> N   1      13.910 -24.093 -28.358  0.00  0.00     0.724 A 
HETATM   10  N   <0> N   1      12.869 -23.445 -27.627  0.00  0.00    -0.081 N 
HETATM   11  C   <0> N   1      12.078 -22.471 -28.095  0.00  0.00     0.246 A 
HETATM   12  O   <0> N   1      12.161 -22.019 -29.228  0.00  0.00    -0.272 OA
HETATM   13  C   <0> N   1      11.080 -21.995 -27.083  0.00  0.00     0.113 A 
HETATM   14  C   <0> N   1      11.408 -22.884 -25.853  0.00  0.00     0.113 A 
HETATM   15  C   <0> N   1      12.538 -23.725 -26.360  0.00  0.00     0.246 A 
HETATM   16  O   <0> N   1      13.100 -24.578 -25.689  0.00  0.00    -0.272 OA
HETATM   17  N   <0> N   1      14.689 -25.084 -27.845  0.00  0.00    -0.018 N 
HETATM   18  C   <0> N   1      15.498 -25.371 -28.874  0.00  0.00     0.722 A 
HETATM   19  N   <0> N   1      16.479 -26.306 -28.883  0.00  0.00    -0.193 N 
ATOM     20  HN  <0> N   1      16.661 -26.876 -28.057  1.00  0.00     0.184 HD
HETATM   21  H   <0> N   1      14.663 -25.488 -26.947  0.00  0.00     0.203 HD
ENDROOT
TORSDOF 0
ENDMDL
MODEL 7
REMARK VINA RESULT:      -8.0      2.103      6.213
REMARK  0 active torsions:
REMARK  status: ('A' for Active; 'I' for Inactive)
REMARK       I    between atoms: C_9  and  N_10 
ROOT
HETATM    1  C   <0> N   1      14.589 -24.586 -27.078  0.00  0.00     0.069 C 
HETATM    2  C   <0> N   1      15.375 -25.278 -28.143  0.00  0.00     0.028 A 
HETATM    3  C   <0> N   1      15.829 -24.550 -29.268  0.00  0.00     0.102 A 
HETATM    4  C   <0> N   1      16.564 -25.222 -30.255  0.00  0.00     0.284 A 
HETATM    5  O   <0> N   1      16.976 -24.636 -31.241  0.00  0.00    -0.266 OA
HETATM    6  N   <0> N   1      16.803 -26.552 -30.077  0.00  0.00    -0.033 N 
HETATM    7  N   <0> N   1      17.461 -27.390 -30.857  0.00  0.00    -0.107 N 
ATOM      8  HN  <0> N   1      17.914 -27.181 -31.746  1.00  0.00     0.207 HD
HETATM    9  C   <0> N   1      17.405 -28.588 -30.222  0.00  0.00     0.724 A 
HETATM   10  N   <0> N   1      17.996 -29.790 -30.718  0.00  0.00    -0.081 N 
HETATM   11  C   <0> N   1      18.683 -29.906 -31.862  0.00  0.00     0.246 A 
HETATM   12  O   <0> N   1      18.887 -28.973 -32.625  0.00  0.00    -0.272 OA
HETATM   13  C   <0> N   1      19.177 -31.301 -32.105  0.00  0.00     0.113 A 
HETATM   14  C   <0> N   1      18.649 -32.059 -30.856  0.00  0.00     0.113 A 
HETATM   15  C   <0> N   1      17.942 -30.977 -30.101  0.00  0.00     0.246 A 
HETATM   16  O   <0> N   1      17.376 -31.157 -29.033  0.00  0.00    -0.272 OA
HETATM   17  N   <0> N   1      16.718 -28.512 -29.051  0.00  0.00    -0.018 N 
HETATM   18  C   <0> N   1      16.365 -27.219 -29.011  0.00  0.00     0.722 A 
HETATM   19  N   <0> N   1      15.652 -26.615 -28.030  0.00  0.00    -0.193 N 
ATOM     20  HN  <0> N   1      15.328 -27.146 -27.221  1.00  0.00     0.184 HD
HETATM   21  H   <0> N   1      16.529 -29.225 -28.398  0.00  0.00     0.203 HD
ENDROOT
TORSDOF 0
ENDMDL
MODEL 8
REMARK VINA RESULT:      -7.9      2.649      3.959
REMARK  0 active torsions:
REMARK  status: ('A' for Active; 'I' for Inactive)
REMARK       I    between atoms: C_9  and  N_10 
ROOT
HETATM    1  C   <0> N   1      19.687 -24.992 -35.105  0.00  0.00     0.069 C 
HETATM    2  C   <0> N   1      18.859 -25.367 -33.919  0.00  0.00     0.028 A 
HETATM    3  C   <0> N   1      18.564 -26.728 -33.669  0.00  0.00     0.102 A 
HETATM    4  C   <0> N   1      17.785 -27.055 -32.550  0.00  0.00     0.284 A 
HETATM    5  O   <0> N   1      17.506 -28.214 -32.294  0.00  0.00    -0.266 OA
HETATM    6  N   <0> N   1      17.348 -26.035 -31.757  0.00  0.00    -0.033 N 
HETATM    7  N   <0> N   1      16.610 -26.090 -30.664  0.00  0.00    -0.107 N 
ATOM      8  HN  <0> N   1      16.232 -26.923 -30.215  1.00  0.00     0.207 HD
HETATM    9  C   <0> N   1      16.463 -24.801 -30.267  0.00  0.00     0.724 A 
HETATM   10  N   <0> N   1      15.728 -24.393 -29.113  0.00  0.00    -0.081 N 
HETATM   11  C   <0> N   1      15.091 -25.211 -28.265  0.00  0.00     0.246 A 
HETATM   12  O   <0> N   1      15.068 -26.428 -28.389  0.00  0.00    -0.272 OA
HETATM   13  C   <0> N   1      14.409 -24.478 -27.149  0.00  0.00     0.113 A 
HETATM   14  C   <0> N   1      14.752 -22.998 -27.471  0.00  0.00     0.113 A 
HETATM   15  C   <0> N   1      15.574 -23.124 -28.715  0.00  0.00     0.246 A 
HETATM   16  O   <0> N   1      16.056 -22.169 -29.307  0.00  0.00    -0.272 OA
HETATM   17  N   <0> N   1      17.101 -23.935 -31.100  0.00  0.00    -0.018 N 
HETATM   18  C   <0> N   1      17.636 -24.760 -32.011  0.00  0.00     0.722 A 
HETATM   19  N   <0> N   1      18.386 -24.394 -33.079  0.00  0.00    -0.193 N 
ATOM     20  HN  <0> N   1      18.596 -23.410 -33.254  1.00  0.00     0.184 HD
HETATM   21  H   <0> N   1      17.157 -22.954 -31.046  0.00  0.00     0.203 HD
ENDROOT
TORSDOF 0
ENDMDL
MODEL 9
REMARK VINA RESULT:      -7.8      4.534      5.589
REMARK  0 active torsions:
REMARK  status: ('A' for Active; 'I' for Inactive)
REMARK       I    between atoms: C_9  and  N_10 
ROOT
HETATM    1  C   <0> N   1      19.621 -29.530 -37.333  0.00  0.00     0.069 C 
HETATM    2  C   <0> N   1      19.212 -28.900 -36.042  0.00  0.00     0.028 A 
HETATM    3  C   <0> N   1      19.534 -29.532 -34.817  0.00  0.00     0.102 A 
HETATM    4  C   <0> N   1      19.140 -28.921 -33.618  0.00  0.00     0.284 A 
HETATM    5  O   <0> N   1      19.396 -29.429 -32.540  0.00  0.00    -0.266 OA
HETATM    6  N   <0> N   1      18.461 -27.741 -33.697  0.00  0.00    -0.033 N 
HETATM    7  N   <0> N   1      17.991 -26.987 -32.722  0.00  0.00    -0.107 N 
ATOM      8  HN  <0> N   1      18.056 -27.160 -31.719  1.00  0.00     0.207 HD
HETATM    9  C   <0> N   1      17.402 -25.931 -33.338  0.00  0.00     0.724 A 
HETATM   10  N   <0> N   1      16.758 -24.856 -32.653  0.00  0.00    -0.081 N 
HETATM   11  C   <0> N   1      16.646 -24.734 -31.324  0.00  0.00     0.246 A 
HETATM   12  O   <0> N   1      17.096 -25.549 -30.531  0.00  0.00    -0.272 OA
HETATM   13  C   <0> N   1      15.913 -23.492 -30.913  0.00  0.00     0.113 A 
HETATM   14  C   <0> N   1      15.575 -22.841 -32.282  0.00  0.00     0.113 A 
HETATM   15  C   <0> N   1      16.171 -23.813 -33.253  0.00  0.00     0.246 A 
HETATM   16  O   <0> N   1      16.127 -23.670 -34.466  0.00  0.00    -0.272 OA
HETATM   17  N   <0> N   1      17.497 -26.015 -34.692  0.00  0.00    -0.018 N 
HETATM   18  C   <0> N   1      18.168 -27.163 -34.860  0.00  0.00     0.722 A 
HETATM   19  N   <0> N   1      18.527 -27.714 -36.045  0.00  0.00    -0.193 N 
ATOM     20  HN  <0> N   1      18.293 -27.252 -36.924  1.00  0.00     0.184 HD
HETATM   21  H   <0> N   1      17.161 -25.390 -35.375  0.00  0.00     0.203 HD
ENDROOT
TORSDOF 0
ENDMDL
