MODEL 1
REMARK VINA RESULT:      -8.7      0.000      0.000
REMARK  4 active torsions:
REMARK  status: ('A' for Active; 'I' for Inactive)
REMARK    1  A    between atoms: N_1  and  C_2 
REMARK    2  A    between atoms: C_8  and  C_9 
REMARK    3  A    between atoms: C_14  and  C_15 
REMARK    4  A    between atoms: C_21  and  N_22 
ROOT
HETATM    1  C   ZIN N   1     -13.415 -58.664  -5.999  0.00  0.00     0.154 A 
HETATM    2  N   ZIN N   1     -12.356 -59.267  -6.565  0.00  0.00    -0.282 N 
ATOM      3  HN  ZIN N   1     -11.746 -58.873  -7.281  1.00  0.00     0.188 HD
HETATM    4  N   ZIN N   1     -12.256 -60.464  -6.024  0.00  0.00    -0.282 N 
ATOM      5  HN  ZIN N   1     -11.552 -61.170  -6.240  1.00  0.00     0.188 HD
HETATM    6  C   ZIN N   1     -13.252 -60.581  -5.131  0.00  0.00     0.154 A 
HETATM    7  N   ZIN N   1     -14.008 -59.463  -5.087  0.00  0.00    -0.322 N 
HETATM    8  H   ZIN N   1     -14.797 -59.277  -4.527  0.00  0.00     0.169 HD
ENDROOT
BRANCH   1   9
HETATM    9  C   ZIN N   1     -13.856 -57.304  -6.343  0.00  0.00     0.147 A 
HETATM   10  C   ZIN N   1     -13.354 -56.101  -5.897  0.00  0.00     0.154 A 
HETATM   11  N   ZIN N   1     -14.063 -55.120  -6.473  0.00  0.00    -0.224 N 
HETATM   12  O   ZIN N   1     -14.947 -55.714  -7.229  0.00  0.00    -0.155 OA
ATOM     13  HN  ZIN N   1     -13.938 -54.115  -6.347  1.00  0.00     0.198 HD
HETATM   14  N   ZIN N   1     -14.865 -57.017  -7.186  0.00  0.00    -0.234 N 
ATOM     15  HN  ZIN N   1     -15.448 -57.685  -7.690  1.00  0.00     0.197 HD
BRANCH  10  16
HETATM   16  N   ZIN N   1     -12.285 -55.880  -4.993  0.00  0.00    -0.382 N 
HETATM   17  H   ZIN N   1     -12.052 -54.937  -4.657  0.00  0.00     0.157 HD
HETATM   18  H   ZIN N   1     -11.722 -56.674  -4.660  0.00  0.00     0.157 HD
ENDBRANCH  10  16
ENDBRANCH   1   9
BRANCH   6  19
HETATM   19  C   ZIN N   1     -13.476 -61.784  -4.315  0.00  0.00     0.147 A 
HETATM   20  C   ZIN N   1     -13.454 -61.906  -2.943  0.00  0.00     0.154 A 
HETATM   21  N   ZIN N   1     -13.713 -63.186  -2.639  0.00  0.00    -0.224 N 
HETATM   22  O   ZIN N   1     -13.881 -63.798  -3.780  0.00  0.00    -0.155 OA
ATOM     23  HN  ZIN N   1     -13.767 -63.598  -1.708  1.00  0.00     0.198 HD
HETATM   24  N   ZIN N   1     -13.749 -63.004  -4.810  0.00  0.00    -0.234 N 
ATOM     25  HN  ZIN N   1     -13.837 -63.259  -5.795  1.00  0.00     0.197 HD
BRANCH  20  26
HETATM   26  N   ZIN N   1     -13.209 -60.898  -1.978  0.00  0.00    -0.382 N 
HETATM   27  H   ZIN N   1     -12.738 -61.136  -1.094  0.00  0.00     0.157 HD
HETATM   28  H   ZIN N   1     -13.494 -59.923  -2.136  0.00  0.00     0.157 HD
ENDBRANCH  20  26
ENDBRANCH   6  19
TORSDOF 4
ENDMDL
MODEL 2
REMARK VINA RESULT:      -8.7      0.048      6.028
REMARK  4 active torsions:
REMARK  status: ('A' for Active; 'I' for Inactive)
REMARK    1  A    between atoms: N_1  and  C_2 
REMARK    2  A    between atoms: C_8  and  C_9 
REMARK    3  A    between atoms: C_14  and  C_15 
REMARK    4  A    between atoms: C_21  and  N_22 
ROOT
HETATM    1  C   ZIN N   1     -13.260 -60.570  -5.140  0.00  0.00     0.154 A 
HETATM    2  N   ZIN N   1     -12.254 -60.466  -6.025  0.00  0.00    -0.282 N 
ATOM      3  HN  ZIN N   1     -11.556 -61.179  -6.234  1.00  0.00     0.188 HD
HETATM    4  N   ZIN N   1     -12.339 -59.270  -6.571  0.00  0.00    -0.282 N 
ATOM      5  HN  ZIN N   1     -11.719 -58.884  -7.283  1.00  0.00     0.188 HD
HETATM    6  C   ZIN N   1     -13.396 -58.654  -6.016  0.00  0.00     0.154 A 
HETATM    7  N   ZIN N   1     -14.004 -59.444  -5.106  0.00  0.00    -0.322 N 
HETATM    8  H   ZIN N   1     -14.795 -59.247  -4.553  0.00  0.00     0.169 HD
ENDROOT
BRANCH   1   9
HETATM    9  C   ZIN N   1     -13.503 -61.768  -4.322  0.00  0.00     0.147 A 
HETATM   10  C   ZIN N   1     -13.460 -61.893  -2.951  0.00  0.00     0.154 A 
HETATM   11  N   ZIN N   1     -13.748 -63.165  -2.645  0.00  0.00    -0.224 N 
HETATM   12  O   ZIN N   1     -13.953 -63.770  -3.784  0.00  0.00    -0.155 OA
ATOM     13  HN  ZIN N   1     -13.798 -63.578  -1.713  1.00  0.00     0.198 HD
HETATM   14  N   ZIN N   1     -13.819 -62.979  -4.815  0.00  0.00    -0.234 N 
ATOM     15  HN  ZIN N   1     -13.930 -63.229  -5.798  1.00  0.00     0.197 HD
BRANCH  10  16
HETATM   16  N   ZIN N   1     -13.171 -60.893  -1.989  0.00  0.00    -0.382 N 
HETATM   17  H   ZIN N   1     -13.710 -60.020  -1.943  0.00  0.00     0.157 HD
HETATM   18  H   ZIN N   1     -12.404 -61.035  -1.317  0.00  0.00     0.157 HD
ENDBRANCH  10  16
ENDBRANCH   1   9
BRANCH   6  19
HETATM   19  C   ZIN N   1     -13.821 -57.290  -6.369  0.00  0.00     0.147 A 
HETATM   20  C   ZIN N   1     -13.322 -56.092  -5.909  0.00  0.00     0.154 A 
HETATM   21  N   ZIN N   1     -14.011 -55.105  -6.502  0.00  0.00    -0.224 N 
HETATM   22  O   ZIN N   1     -14.881 -55.693  -7.279  0.00  0.00    -0.155 OA
ATOM     23  HN  ZIN N   1     -13.883 -54.102  -6.372  1.00  0.00     0.198 HD
HETATM   24  N   ZIN N   1     -14.806 -56.997  -7.234  0.00  0.00    -0.234 N 
ATOM     25  HN  ZIN N   1     -15.382 -57.661  -7.754  1.00  0.00     0.197 HD
BRANCH  20  26
HETATM   26  N   ZIN N   1     -12.274 -55.877  -4.980  0.00  0.00    -0.382 N 
HETATM   27  H   ZIN N   1     -12.351 -56.250  -4.024  0.00  0.00     0.157 HD
HETATM   28  H   ZIN N   1     -11.430 -55.351  -5.236  0.00  0.00     0.157 HD
ENDBRANCH  20  26
ENDBRANCH   6  19
TORSDOF 4
ENDMDL
MODEL 3
REMARK VINA RESULT:      -8.2     13.146     15.324
REMARK  4 active torsions:
REMARK  status: ('A' for Active; 'I' for Inactive)
REMARK    1  A    between atoms: N_1  and  C_2 
REMARK    2  A    between atoms: C_8  and  C_9 
REMARK    3  A    between atoms: C_14  and  C_15 
REMARK    4  A    between atoms: C_21  and  N_22 
ROOT
HETATM    1  C   ZIN N   1      -8.920 -44.225  -4.365  0.00  0.00     0.154 A 
HETATM    2  N   ZIN N   1      -8.885 -45.119  -5.368  0.00  0.00    -0.282 N 
ATOM      3  HN  ZIN N   1      -9.006 -44.920  -6.361  1.00  0.00     0.188 HD
HETATM    4  N   ZIN N   1      -8.665 -46.300  -4.828  0.00  0.00    -0.282 N 
ATOM      5  HN  ZIN N   1      -8.583 -47.187  -5.325  1.00  0.00     0.188 HD
HETATM    6  C   ZIN N   1      -8.568 -46.119  -3.500  0.00  0.00     0.154 A 
HETATM    7  N   ZIN N   1      -8.724 -44.819  -3.169  0.00  0.00    -0.322 N 
HETATM    8  H   ZIN N   1      -8.701 -44.407  -2.274  0.00  0.00     0.169 HD
ENDROOT
BRANCH   1   9
HETATM    9  C   ZIN N   1      -9.146 -42.786  -4.566  0.00  0.00     0.147 A 
HETATM   10  C   ZIN N   1      -9.713 -41.878  -3.699  0.00  0.00     0.154 A 
HETATM   11  N   ZIN N   1      -9.715 -40.680  -4.301  0.00  0.00    -0.224 N 
HETATM   12  O   ZIN N   1      -9.172 -40.868  -5.473  0.00  0.00    -0.155 OA
ATOM     13  HN  ZIN N   1     -10.067 -39.801  -3.921  1.00  0.00     0.198 HD
HETATM   14  N   ZIN N   1      -8.815 -42.108  -5.680  0.00  0.00    -0.234 N 
ATOM     15  HN  ZIN N   1      -8.375 -42.488  -6.518  1.00  0.00     0.197 HD
BRANCH  10  16
HETATM   16  N   ZIN N   1     -10.220 -42.110  -2.396  0.00  0.00    -0.382 N 
HETATM   17  H   ZIN N   1     -10.800 -42.932  -2.183  0.00  0.00     0.157 HD
HETATM   18  H   ZIN N   1     -10.011 -41.446  -1.639  0.00  0.00     0.157 HD
ENDBRANCH  10  16
ENDBRANCH   1   9
BRANCH   6  19
HETATM   19  C   ZIN N   1      -8.322 -47.210  -2.546  0.00  0.00     0.147 A 
HETATM   20  C   ZIN N   1      -9.171 -47.720  -1.589  0.00  0.00     0.154 A 
HETATM   21  N   ZIN N   1      -8.527 -48.707  -0.950  0.00  0.00    -0.224 N 
HETATM   22  O   ZIN N   1      -7.346 -48.780  -1.503  0.00  0.00    -0.155 OA
ATOM     23  HN  ZIN N   1      -8.885 -49.283  -0.188  1.00  0.00     0.198 HD
HETATM   24  N   ZIN N   1      -7.175 -47.907  -2.461  0.00  0.00    -0.234 N 
ATOM     25  HN  ZIN N   1      -6.338 -47.780  -3.031  1.00  0.00     0.197 HD
BRANCH  20  26
HETATM   26  N   ZIN N   1     -10.496 -47.316  -1.288  0.00  0.00    -0.382 N 
HETATM   27  H   ZIN N   1     -10.829 -46.387  -1.581  0.00  0.00     0.157 HD
HETATM   28  H   ZIN N   1     -11.142 -47.932  -0.779  0.00  0.00     0.157 HD
ENDBRANCH  20  26
ENDBRANCH   6  19
TORSDOF 4
ENDMDL
MODEL 4
REMARK VINA RESULT:      -7.9     15.516     17.712
REMARK  4 active torsions:
REMARK  status: ('A' for Active; 'I' for Inactive)
REMARK    1  A    between atoms: N_1  and  C_2 
REMARK    2  A    between atoms: C_8  and  C_9 
REMARK    3  A    between atoms: C_14  and  C_15 
REMARK    4  A    between atoms: C_21  and  N_22 
ROOT
HETATM    1  C   ZIN N   1     -24.902 -71.932  -5.173  0.00  0.00     0.154 A 
HETATM    2  N   ZIN N   1     -24.988 -70.809  -5.905  0.00  0.00    -0.282 N 
ATOM      3  HN  ZIN N   1     -24.905 -70.739  -6.919  1.00  0.00     0.188 HD
HETATM    4  N   ZIN N   1     -25.198 -69.814  -5.067  0.00  0.00    -0.282 N 
ATOM      5  HN  ZIN N   1     -25.309 -68.830  -5.311  1.00  0.00     0.188 HD
HETATM    6  C   ZIN N   1     -25.240 -70.338  -3.831  0.00  0.00     0.154 A 
HETATM    7  N   ZIN N   1     -25.057 -71.675  -3.856  0.00  0.00    -0.322 N 
HETATM    8  H   ZIN N   1     -25.040 -72.307  -3.101  0.00  0.00     0.169 HD
ENDROOT
BRANCH   1   9
HETATM    9  C   ZIN N   1     -24.670 -73.264  -5.751  0.00  0.00     0.147 A 
HETATM   10  C   ZIN N   1     -25.462 -74.388  -5.661  0.00  0.00     0.154 A 
HETATM   11  N   ZIN N   1     -24.857 -75.372  -6.341  0.00  0.00    -0.224 N 
HETATM   12  O   ZIN N   1     -23.755 -74.857  -6.814  0.00  0.00    -0.155 OA
ATOM     13  HN  ZIN N   1     -25.190 -76.329  -6.464  1.00  0.00     0.198 HD
HETATM   14  N   ZIN N   1     -23.597 -73.600  -6.490  0.00  0.00    -0.234 N 
ATOM     15  HN  ZIN N   1     -22.817 -72.996  -6.745  1.00  0.00     0.197 HD
BRANCH  10  16
HETATM   16  N   ZIN N   1     -26.699 -74.536  -4.986  0.00  0.00    -0.382 N 
HETATM   17  H   ZIN N   1     -26.974 -75.428  -4.557  0.00  0.00     0.157 HD
HETATM   18  H   ZIN N   1     -27.345 -73.738  -4.920  0.00  0.00     0.157 HD
ENDBRANCH  10  16
ENDBRANCH   1   9
BRANCH   6  19
HETATM   19  C   ZIN N   1     -25.459 -69.539  -2.616  0.00  0.00     0.147 A 
HETATM   20  C   ZIN N   1     -26.187 -69.866  -1.494  0.00  0.00     0.154 A 
HETATM   21  N   ZIN N   1     -26.110 -68.837  -0.637  0.00  0.00    -0.224 N 
HETATM   22  O   ZIN N   1     -25.369 -67.937  -1.226  0.00  0.00    -0.155 OA
ATOM     23  HN  ZIN N   1     -26.542 -68.770   0.284  1.00  0.00     0.198 HD
HETATM   24  N   ZIN N   1     -24.956 -68.309  -2.409  0.00  0.00    -0.234 N 
ATOM     25  HN  ZIN N   1     -24.368 -67.773  -3.049  1.00  0.00     0.197 HD
BRANCH  20  26
HETATM   26  N   ZIN N   1     -26.907 -71.059  -1.233  0.00  0.00    -0.382 N 
HETATM   27  H   ZIN N   1     -27.906 -71.119  -1.474  0.00  0.00     0.157 HD
HETATM   28  H   ZIN N   1     -26.455 -71.876  -0.805  0.00  0.00     0.157 HD
ENDBRANCH  20  26
ENDBRANCH   6  19
TORSDOF 4
ENDMDL
MODEL 5
REMARK VINA RESULT:      -7.9     16.914     19.497
REMARK  4 active torsions:
REMARK  status: ('A' for Active; 'I' for Inactive)
REMARK    1  A    between atoms: N_1  and  C_2 
REMARK    2  A    between atoms: C_8  and  C_9 
REMARK    3  A    between atoms: C_14  and  C_15 
REMARK    4  A    between atoms: C_21  and  N_22 
ROOT
HETATM    1  C   ZIN N   1     -19.250 -74.806   2.632  0.00  0.00     0.154 A 
HETATM    2  N   ZIN N   1     -18.848 -75.049   1.374  0.00  0.00    -0.282 N 
ATOM      3  HN  ZIN N   1     -18.162 -74.512   0.843  1.00  0.00     0.188 HD
HETATM    4  N   ZIN N   1     -19.506 -76.109   0.953  0.00  0.00    -0.282 N 
ATOM      5  HN  ZIN N   1     -19.425 -76.549   0.036  1.00  0.00     0.188 HD
HETATM    6  C   ZIN N   1     -20.304 -76.507   1.958  0.00  0.00     0.154 A 
HETATM    7  N   ZIN N   1     -20.170 -75.707   3.038  0.00  0.00    -0.322 N 
HETATM    8  H   ZIN N   1     -20.631 -75.766   3.907  0.00  0.00     0.169 HD
ENDROOT
BRANCH   1   9
HETATM    9  C   ZIN N   1     -18.739 -73.695   3.450  0.00  0.00     0.147 A 
HETATM   10  C   ZIN N   1     -18.705 -73.586   4.822  0.00  0.00     0.154 A 
HETATM   11  N   ZIN N   1     -18.155 -72.402   5.127  0.00  0.00    -0.224 N 
HETATM   12  O   ZIN N   1     -17.874 -71.833   3.986  0.00  0.00    -0.155 OA
ATOM     13  HN  ZIN N   1     -17.988 -72.022   6.059  1.00  0.00     0.198 HD
HETATM   14  N   ZIN N   1     -18.204 -72.565   2.954  0.00  0.00    -0.234 N 
ATOM     15  HN  ZIN N   1     -18.081 -72.327   1.970  1.00  0.00     0.197 HD
BRANCH  10  16
HETATM   16  N   ZIN N   1     -19.155 -74.521   5.787  0.00  0.00    -0.382 N 
HETATM   17  H   ZIN N   1     -19.237 -75.522   5.568  0.00  0.00     0.157 HD
HETATM   18  H   ZIN N   1     -19.409 -74.202   6.731  0.00  0.00     0.157 HD
ENDBRANCH  10  16
ENDBRANCH   1   9
BRANCH   6  19
HETATM   19  C   ZIN N   1     -21.202 -77.668   1.874  0.00  0.00     0.147 A 
HETATM   20  C   ZIN N   1     -22.572 -77.705   2.013  0.00  0.00     0.154 A 
HETATM   21  N   ZIN N   1     -22.968 -78.977   1.858  0.00  0.00    -0.224 N 
HETATM   22  O   ZIN N   1     -21.880 -79.666   1.638  0.00  0.00    -0.155 OA
ATOM     23  HN  ZIN N   1     -23.922 -79.333   1.904  1.00  0.00     0.198 HD
HETATM   24  N   ZIN N   1     -20.801 -78.929   1.637  0.00  0.00    -0.234 N 
ATOM     25  HN  ZIN N   1     -19.843 -79.248   1.487  1.00  0.00     0.197 HD
BRANCH  20  26
HETATM   26  N   ZIN N   1     -23.455 -76.627   2.272  0.00  0.00    -0.382 N 
HETATM   27  H   ZIN N   1     -24.343 -76.556   1.757  0.00  0.00     0.157 HD
HETATM   28  H   ZIN N   1     -23.231 -75.905   2.968  0.00  0.00     0.157 HD
ENDBRANCH  20  26
ENDBRANCH   6  19
TORSDOF 4
ENDMDL
MODEL 6
REMARK VINA RESULT:      -7.9     18.539     22.155
REMARK  4 active torsions:
REMARK  status: ('A' for Active; 'I' for Inactive)
REMARK    1  A    between atoms: N_1  and  C_2 
REMARK    2  A    between atoms: C_8  and  C_9 
REMARK    3  A    between atoms: C_14  and  C_15 
REMARK    4  A    between atoms: C_21  and  N_22 
ROOT
HETATM    1  C   ZIN N   1     -19.413 -78.318   2.172  0.00  0.00     0.154 A 
HETATM    2  N   ZIN N   1     -20.423 -78.994   1.600  0.00  0.00    -0.282 N 
ATOM      3  HN  ZIN N   1     -21.092 -78.626   0.924  1.00  0.00     0.188 HD
HETATM    4  N   ZIN N   1     -20.389 -80.221   2.077  0.00  0.00    -0.282 N 
ATOM      5  HN  ZIN N   1     -21.026 -80.982   1.839  1.00  0.00     0.188 HD
HETATM    6  C   ZIN N   1     -19.357 -80.286   2.935  0.00  0.00     0.154 A 
HETATM    7  N   ZIN N   1     -18.715 -79.101   3.022  0.00  0.00    -0.322 N 
HETATM    8  H   ZIN N   1     -17.932 -78.866   3.571  0.00  0.00     0.169 HD
ENDROOT
BRANCH   1   9
HETATM    9  C   ZIN N   1     -19.119 -76.904   1.892  0.00  0.00     0.147 A 
HETATM   10  C   ZIN N   1     -19.952 -75.815   2.016  0.00  0.00     0.154 A 
HETATM   11  N   ZIN N   1     -19.262 -74.725   1.652  0.00  0.00    -0.224 N 
HETATM   12  O   ZIN N   1     -18.070 -75.149   1.327  0.00  0.00    -0.155 OA
ATOM     13  HN  ZIN N   1     -19.597 -73.762   1.633  1.00  0.00     0.198 HD
HETATM   14  N   ZIN N   1     -17.934 -76.442   1.453  0.00  0.00    -0.234 N 
ATOM     15  HN  ZIN N   1     -17.098 -76.993   1.257  1.00  0.00     0.197 HD
BRANCH  10  16
HETATM   16  N   ZIN N   1     -21.303 -75.789   2.444  0.00  0.00    -0.382 N 
HETATM   17  H   ZIN N   1     -21.851 -74.920   2.441  0.00  0.00     0.157 HD
HETATM   18  H   ZIN N   1     -21.754 -76.655   2.769  0.00  0.00     0.157 HD
ENDBRANCH  10  16
ENDBRANCH   1   9
BRANCH   6  19
HETATM   19  C   ZIN N   1     -18.990 -81.502   3.677  0.00  0.00     0.147 A 
HETATM   20  C   ZIN N   1     -18.717 -82.757   3.182  0.00  0.00     0.154 A 
HETATM   21  N   ZIN N   1     -18.429 -83.555   4.221  0.00  0.00    -0.224 N 
HETATM   22  O   ZIN N   1     -18.527 -82.805   5.286  0.00  0.00    -0.155 OA
ATOM     23  HN  ZIN N   1     -18.184 -84.544   4.187  1.00  0.00     0.198 HD
HETATM   24  N   ZIN N   1     -18.859 -81.571   5.013  0.00  0.00    -0.234 N 
ATOM     25  HN  ZIN N   1     -18.993 -80.811   5.681  1.00  0.00     0.197 HD
BRANCH  20  26
HETATM   26  N   ZIN N   1     -18.724 -83.189   1.833  0.00  0.00    -0.382 N 
HETATM   27  H   ZIN N   1     -19.163 -84.085   1.582  0.00  0.00     0.157 HD
HETATM   28  H   ZIN N   1     -18.295 -82.626   1.088  0.00  0.00     0.157 HD
ENDBRANCH  20  26
ENDBRANCH   6  19
TORSDOF 4
ENDMDL
MODEL 7
REMARK VINA RESULT:      -7.8     15.788     17.689
REMARK  4 active torsions:
REMARK  status: ('A' for Active; 'I' for Inactive)
REMARK    1  A    between atoms: N_1  and  C_2 
REMARK    2  A    between atoms: C_8  and  C_9 
REMARK    3  A    between atoms: C_14  and  C_15 
REMARK    4  A    between atoms: C_21  and  N_22 
ROOT
HETATM    1  C   ZIN N   1      -9.191 -43.399  -0.984  0.00  0.00     0.154 A 
HETATM    2  N   ZIN N   1     -10.234 -42.560  -1.104  0.00  0.00    -0.282 N 
ATOM      3  HN  ZIN N   1     -10.827 -42.219  -0.348  1.00  0.00     0.188 HD
HETATM    4  N   ZIN N   1     -10.348 -42.264  -2.383  0.00  0.00    -0.282 N 
ATOM      5  HN  ZIN N   1     -11.045 -41.648  -2.802  1.00  0.00     0.188 HD
HETATM    6  C   ZIN N   1      -9.374 -42.921  -3.032  0.00  0.00     0.154 A 
HETATM    7  N   ZIN N   1      -8.621 -43.651  -2.182  0.00  0.00    -0.322 N 
HETATM    8  H   ZIN N   1      -7.847 -44.225  -2.385  0.00  0.00     0.169 HD
ENDROOT
BRANCH   1   9
HETATM    9  C   ZIN N   1      -8.742 -43.959   0.299  0.00  0.00     0.147 A 
HETATM   10  C   ZIN N   1      -9.297 -44.989   1.026  0.00  0.00     0.154 A 
HETATM   11  N   ZIN N   1      -8.556 -45.159   2.130  0.00  0.00    -0.224 N 
HETATM   12  O   ZIN N   1      -7.603 -44.270   2.063  0.00  0.00    -0.155 OA
ATOM     13  HN  ZIN N   1      -8.706 -45.844   2.872  1.00  0.00     0.198 HD
HETATM   14  N   ZIN N   1      -7.670 -43.528   0.988  0.00  0.00    -0.234 N 
ATOM     15  HN  ZIN N   1      -7.037 -42.774   0.725  1.00  0.00     0.197 HD
BRANCH  10  16
HETATM   16  N   ZIN N   1     -10.441 -45.764   0.714  0.00  0.00    -0.382 N 
HETATM   17  H   ZIN N   1     -11.367 -45.334   0.601  0.00  0.00     0.157 HD
HETATM   18  H   ZIN N   1     -10.354 -46.783   0.596  0.00  0.00     0.157 HD
ENDBRANCH  10  16
ENDBRANCH   1   9
BRANCH   6  19
HETATM   19  C   ZIN N   1      -9.170 -42.845  -4.487  0.00  0.00     0.147 A 
HETATM   20  C   ZIN N   1      -9.046 -43.876  -5.391  0.00  0.00     0.154 A 
HETATM   21  N   ZIN N   1      -8.875 -43.339  -6.608  0.00  0.00    -0.224 N 
HETATM   22  O   ZIN N   1      -8.895 -42.044  -6.433  0.00  0.00    -0.155 OA
ATOM     23  HN  ZIN N   1      -8.752 -43.838  -7.488  1.00  0.00     0.198 HD
HETATM   24  N   ZIN N   1      -9.069 -41.700  -5.185  0.00  0.00    -0.234 N 
ATOM     25  HN  ZIN N   1      -9.119 -40.750  -4.813  1.00  0.00     0.197 HD
BRANCH  20  26
HETATM   26  N   ZIN N   1      -9.085 -45.270  -5.140  0.00  0.00    -0.382 N 
HETATM   27  H   ZIN N   1      -9.965 -45.715  -4.846  0.00  0.00     0.157 HD
HETATM   28  H   ZIN N   1      -8.248 -45.857  -5.245  0.00  0.00     0.157 HD
ENDBRANCH  20  26
ENDBRANCH   6  19
TORSDOF 4
ENDMDL
MODEL 8
REMARK VINA RESULT:      -7.8     26.388     30.397
REMARK  4 active torsions:
REMARK  status: ('A' for Active; 'I' for Inactive)
REMARK    1  A    between atoms: N_1  and  C_2 
REMARK    2  A    between atoms: C_8  and  C_9 
REMARK    3  A    between atoms: C_14  and  C_15 
REMARK    4  A    between atoms: C_21  and  N_22 
ROOT
HETATM    1  C   ZIN N   1     -18.696 -87.533   6.287  0.00  0.00     0.154 A 
HETATM    2  N   ZIN N   1     -17.583 -87.944   5.657  0.00  0.00    -0.282 N 
ATOM      3  HN  ZIN N   1     -17.042 -88.782   5.868  1.00  0.00     0.188 HD
HETATM    4  N   ZIN N   1     -17.319 -87.059   4.718  0.00  0.00    -0.282 N 
ATOM      5  HN  ZIN N   1     -16.537 -87.085   4.063  1.00  0.00     0.188 HD
HETATM    6  C   ZIN N   1     -18.274 -86.116   4.780  0.00  0.00     0.154 A 
HETATM    7  N   ZIN N   1     -19.164 -86.381   5.760  0.00  0.00    -0.322 N 
HETATM    8  H   ZIN N   1     -19.957 -85.861   6.026  0.00  0.00     0.169 HD
ENDROOT
BRANCH   1   9
HETATM    9  C   ZIN N   1     -19.314 -88.261   7.405  0.00  0.00     0.147 A 
HETATM   10  C   ZIN N   1     -18.697 -88.879   8.471  0.00  0.00     0.154 A 
HETATM   11  N   ZIN N   1     -19.651 -89.416   9.244  0.00  0.00    -0.224 N 
HETATM   12  O   ZIN N   1     -20.785 -89.130   8.663  0.00  0.00    -0.155 OA
ATOM     13  HN  ZIN N   1     -19.520 -89.940  10.109  1.00  0.00     0.198 HD
HETATM   14  N   ZIN N   1     -20.637 -88.442   7.562  0.00  0.00    -0.234 N 
ATOM     15  HN  ZIN N   1     -21.377 -88.108   6.944  1.00  0.00     0.197 HD
BRANCH  10  16
HETATM   16  N   ZIN N   1     -17.311 -88.963   8.751  0.00  0.00    -0.382 N 
HETATM   17  H   ZIN N   1     -16.700 -89.619   8.248  0.00  0.00     0.157 HD
HETATM   18  H   ZIN N   1     -16.896 -88.360   9.474  0.00  0.00     0.157 HD
ENDBRANCH  10  16
ENDBRANCH   1   9
BRANCH   6  19
HETATM   19  C   ZIN N   1     -18.326 -84.950   3.884  0.00  0.00     0.147 A 
HETATM   20  C   ZIN N   1     -18.370 -84.927   2.509  0.00  0.00     0.154 A 
HETATM   21  N   ZIN N   1     -18.410 -83.645   2.119  0.00  0.00    -0.224 N 
HETATM   22  O   ZIN N   1     -18.390 -82.937   3.216  0.00  0.00    -0.155 OA
ATOM     23  HN  ZIN N   1     -18.446 -83.294   1.162  1.00  0.00     0.198 HD
HETATM   24  N   ZIN N   1     -18.340 -83.671   4.297  0.00  0.00    -0.234 N 
ATOM     25  HN  ZIN N   1     -18.317 -83.338   5.262  1.00  0.00     0.197 HD
BRANCH  20  26
HETATM   26  N   ZIN N   1     -18.375 -86.026   1.613  0.00  0.00    -0.382 N 
HETATM   27  H   ZIN N   1     -18.631 -85.883   0.627  0.00  0.00     0.157 HD
HETATM   28  H   ZIN N   1     -18.128 -86.973   1.925  0.00  0.00     0.157 HD
ENDBRANCH  20  26
ENDBRANCH   6  19
TORSDOF 4
ENDMDL
MODEL 9
REMARK VINA RESULT:      -7.8     26.407     29.874
REMARK  4 active torsions:
REMARK  status: ('A' for Active; 'I' for Inactive)
REMARK    1  A    between atoms: N_1  and  C_2 
REMARK    2  A    between atoms: C_8  and  C_9 
REMARK    3  A    between atoms: C_14  and  C_15 
REMARK    4  A    between atoms: C_21  and  N_22 
ROOT
HETATM    1  C   ZIN N   1     -18.268 -86.131   4.789  0.00  0.00     0.154 A 
HETATM    2  N   ZIN N   1     -17.305 -87.066   4.735  0.00  0.00    -0.282 N 
ATOM      3  HN  ZIN N   1     -16.517 -87.087   4.089  1.00  0.00     0.188 HD
HETATM    4  N   ZIN N   1     -17.571 -87.952   5.673  0.00  0.00    -0.282 N 
ATOM      5  HN  ZIN N   1     -17.026 -88.787   5.890  1.00  0.00     0.188 HD
HETATM    6  C   ZIN N   1     -18.693 -87.551   6.293  0.00  0.00     0.154 A 
HETATM    7  N   ZIN N   1     -19.164 -86.403   5.762  0.00  0.00    -0.322 N 
HETATM    8  H   ZIN N   1     -19.965 -85.890   6.020  0.00  0.00     0.169 HD
ENDROOT
BRANCH   1   9
HETATM    9  C   ZIN N   1     -18.322 -84.966   3.894  0.00  0.00     0.147 A 
HETATM   10  C   ZIN N   1     -18.369 -84.944   2.517  0.00  0.00     0.154 A 
HETATM   11  N   ZIN N   1     -18.407 -83.663   2.127  0.00  0.00    -0.224 N 
HETATM   12  O   ZIN N   1     -18.385 -82.954   3.224  0.00  0.00    -0.155 OA
ATOM     13  HN  ZIN N   1     -18.447 -83.311   1.170  1.00  0.00     0.198 HD
HETATM   14  N   ZIN N   1     -18.334 -83.686   4.305  0.00  0.00    -0.234 N 
ATOM     15  HN  ZIN N   1     -18.307 -83.353   5.269  1.00  0.00     0.197 HD
BRANCH  10  16
HETATM   16  N   ZIN N   1     -18.377 -86.044   1.624  0.00  0.00    -0.382 N 
HETATM   17  H   ZIN N   1     -19.198 -86.655   1.531  0.00  0.00     0.157 HD
HETATM   18  H   ZIN N   1     -17.547 -86.245   1.049  0.00  0.00     0.157 HD
ENDBRANCH  10  16
ENDBRANCH   1   9
BRANCH   6  19
HETATM   19  C   ZIN N   1     -19.314 -88.283   7.407  0.00  0.00     0.147 A 
HETATM   20  C   ZIN N   1     -18.702 -88.886   8.483  0.00  0.00     0.154 A 
HETATM   21  N   ZIN N   1     -19.659 -89.434   9.248  0.00  0.00    -0.224 N 
HETATM   22  O   ZIN N   1     -20.789 -89.168   8.651  0.00  0.00    -0.155 OA
ATOM     23  HN  ZIN N   1     -19.530 -89.952  10.116  1.00  0.00     0.198 HD
HETATM   24  N   ZIN N   1     -20.636 -88.483   7.548  0.00  0.00    -0.234 N 
ATOM     25  HN  ZIN N   1     -21.373 -88.163   6.919  1.00  0.00     0.197 HD
BRANCH  20  26
HETATM   26  N   ZIN N   1     -17.318 -88.950   8.783  0.00  0.00    -0.382 N 
HETATM   27  H   ZIN N   1     -16.657 -89.312   8.082  0.00  0.00     0.157 HD
HETATM   28  H   ZIN N   1     -16.952 -88.642   9.692  0.00  0.00     0.157 HD
ENDBRANCH  20  26
ENDBRANCH   6  19
TORSDOF 4
ENDMDL
