MODEL 1
REMARK VINA RESULT:      -8.3      0.000      0.000
REMARK  1 active torsions:
REMARK  status: ('A' for Active; 'I' for Inactive)
REMARK    1  A    between atoms: C_9  and  C_10 
REMARK       I    between atoms: C_10  and  N_12 
ROOT
HETATM    1  C   ZIN N   1     -21.472 -81.140   2.385  0.00  0.00     0.069 C 
HETATM    2  C   ZIN N   1     -21.130 -79.692   2.230  0.00  0.00     0.028 A 
HETATM    3  C   ZIN N   1     -22.166 -78.724   2.235  0.00  0.00     0.102 A 
HETATM    4  C   ZIN N   1     -21.824 -77.375   2.089  0.00  0.00     0.284 A 
HETATM    5  O   ZIN N   1     -22.677 -76.505   2.089  0.00  0.00    -0.266 OA
HETATM    6  N   ZIN N   1     -20.505 -77.066   1.950  0.00  0.00    -0.046 N 
HETATM    7  N   ZIN N   1     -19.953 -75.880   1.805  0.00  0.00    -0.256 N 
ATOM      8  HN  ZIN N   1     -20.432 -74.980   1.765  1.00  0.00     0.190 HD
HETATM    9  C   ZIN N   1     -18.619 -76.099   1.718  0.00  0.00     0.205 A 
HETATM   10  N   ZIN N   1     -18.326 -77.428   1.805  0.00  0.00    -0.168 N 
HETATM   11  C   ZIN N   1     -19.544 -77.983   1.948  0.00  0.00     0.708 A 
HETATM   12  N   ZIN N   1     -19.822 -79.305   2.085  0.00  0.00    -0.194 N 
ATOM     13  HN  ZIN N   1     -19.072 -79.997   2.079  1.00  0.00     0.184 HD
HETATM   14  H   ZIN N   1     -17.446 -77.869   1.772  0.00  0.00     0.186 HD
ENDROOT
BRANCH   9  15
HETATM   15  C   ZIN N   1     -17.594 -75.030   1.553  0.00  0.00     0.289 C 
HETATM   16  O   ZIN N   1     -16.814 -75.118   0.615  0.00  0.00    -0.264 OA
HETATM   17  N   ZIN N   1     -17.513 -73.952   2.402  0.00  0.00    -0.345 N 
HETATM   18  C   ZIN N   1     -16.552 -72.886   2.224  0.00  0.00     0.126 C 
HETATM   19  C   ZIN N   1     -18.408 -73.714   3.514  0.00  0.00     0.126 C 
HETATM   20  C   ZIN N   1     -17.197 -71.739   3.002  0.00  0.00     0.021 C 
HETATM   21  C   ZIN N   1     -17.833 -72.464   4.175  0.00  0.00     0.021 C 
ENDBRANCH   9  15
TORSDOF 1
ENDMDL
MODEL 2
REMARK VINA RESULT:      -8.2      2.202      2.946
REMARK  1 active torsions:
REMARK  status: ('A' for Active; 'I' for Inactive)
REMARK    1  A    between atoms: C_9  and  C_10 
REMARK       I    between atoms: C_10  and  N_12 
ROOT
HETATM    1  C   ZIN N   1     -22.448 -78.080   2.055  0.00  0.00     0.069 C 
HETATM    2  C   ZIN N   1     -21.449 -76.975   2.183  0.00  0.00     0.028 A 
HETATM    3  C   ZIN N   1     -21.728 -75.874   3.031  0.00  0.00     0.102 A 
HETATM    4  C   ZIN N   1     -20.778 -74.852   3.138  0.00  0.00     0.284 A 
HETATM    5  O   ZIN N   1     -20.971 -73.886   3.854  0.00  0.00    -0.266 OA
HETATM    6  N   ZIN N   1     -19.631 -74.973   2.416  0.00  0.00    -0.046 N 
HETATM    7  N   ZIN N   1     -18.607 -74.149   2.361  0.00  0.00    -0.256 N 
ATOM      8  HN  ZIN N   1     -18.504 -73.262   2.856  1.00  0.00     0.190 HD
HETATM    9  C   ZIN N   1     -17.716 -74.718   1.514  0.00  0.00     0.205 A 
HETATM   10  N   ZIN N   1     -18.180 -75.905   1.027  0.00  0.00    -0.168 N 
HETATM   11  C   ZIN N   1     -19.381 -76.012   1.625  0.00  0.00     0.708 A 
HETATM   12  N   ZIN N   1     -20.268 -77.030   1.485  0.00  0.00    -0.194 N 
ATOM     13  HN  ZIN N   1     -20.062 -77.819   0.873  1.00  0.00     0.184 HD
HETATM   14  H   ZIN N   1     -17.745 -76.526   0.398  0.00  0.00     0.186 HD
ENDROOT
BRANCH   9  15
HETATM   15  C   ZIN N   1     -16.393 -74.133   1.156  0.00  0.00     0.289 C 
HETATM   16  O   ZIN N   1     -16.349 -73.322   0.241  0.00  0.00    -0.264 OA
HETATM   17  N   ZIN N   1     -15.239 -74.455   1.830  0.00  0.00    -0.345 N 
HETATM   18  C   ZIN N   1     -13.959 -73.858   1.521  0.00  0.00     0.126 C 
HETATM   19  C   ZIN N   1     -15.173 -75.360   2.957  0.00  0.00     0.126 C 
HETATM   20  C   ZIN N   1     -13.179 -74.082   2.816  0.00  0.00     0.021 C 
HETATM   21  C   ZIN N   1     -13.680 -75.445   3.260  0.00  0.00     0.021 C 
ENDBRANCH   9  15
TORSDOF 1
ENDMDL
MODEL 3
REMARK VINA RESULT:      -8.0     12.639     15.712
REMARK  1 active torsions:
REMARK  status: ('A' for Active; 'I' for Inactive)
REMARK    1  A    between atoms: C_9  and  C_10 
REMARK       I    between atoms: C_10  and  N_12 
ROOT
HETATM    1  C   ZIN N   1     -15.389 -92.888  11.952  0.00  0.00     0.069 C 
HETATM    2  C   ZIN N   1     -16.428 -92.307  11.048  0.00  0.00     0.028 A 
HETATM    3  C   ZIN N   1     -17.592 -93.058  10.745  0.00  0.00     0.102 A 
HETATM    4  C   ZIN N   1     -18.552 -92.494   9.897  0.00  0.00     0.284 A 
HETATM    5  O   ZIN N   1     -19.570 -93.099   9.608  0.00  0.00    -0.266 OA
HETATM    6  N   ZIN N   1     -18.313 -91.247   9.407  0.00  0.00    -0.046 N 
HETATM    7  N   ZIN N   1     -19.066 -90.523   8.607  0.00  0.00    -0.256 N 
ATOM      8  HN  ZIN N   1     -19.967 -90.786   8.207  1.00  0.00     0.190 HD
HETATM    9  C   ZIN N   1     -18.399 -89.359   8.421  0.00  0.00     0.205 A 
HETATM   10  N   ZIN N   1     -17.218 -89.347   9.103  0.00  0.00    -0.168 N 
HETATM   11  C   ZIN N   1     -17.219 -90.553   9.701  0.00  0.00     0.708 A 
HETATM   12  N   ZIN N   1     -16.256 -91.054  10.517  0.00  0.00    -0.194 N 
ATOM     13  HN  ZIN N   1     -15.420 -90.508  10.730  1.00  0.00     0.184 HD
HETATM   14  H   ZIN N   1     -16.539 -88.635   9.148  0.00  0.00     0.186 HD
ENDROOT
BRANCH   9  15
HETATM   15  C   ZIN N   1     -18.887 -88.227   7.583  0.00  0.00     0.289 C 
HETATM   16  O   ZIN N   1     -19.569 -87.365   8.119  0.00  0.00    -0.264 OA
HETATM   17  N   ZIN N   1     -18.580 -88.114   6.248  0.00  0.00    -0.345 N 
HETATM   18  C   ZIN N   1     -19.010 -86.997   5.437  0.00  0.00     0.126 C 
HETATM   19  C   ZIN N   1     -17.744 -89.043   5.517  0.00  0.00     0.126 C 
HETATM   20  C   ZIN N   1     -18.010 -87.034   4.282  0.00  0.00     0.021 C 
HETATM   21  C   ZIN N   1     -17.805 -88.525   4.083  0.00  0.00     0.021 C 
ENDBRANCH   9  15
TORSDOF 1
ENDMDL
MODEL 4
REMARK VINA RESULT:      -8.0     15.858     19.076
REMARK  1 active torsions:
REMARK  status: ('A' for Active; 'I' for Inactive)
REMARK    1  A    between atoms: C_9  and  C_10 
REMARK       I    between atoms: C_10  and  N_12 
ROOT
HETATM    1  C   ZIN N   1     -18.839 -88.264   8.004  0.00  0.00     0.069 C 
HETATM    2  C   ZIN N   1     -18.594 -89.504   8.804  0.00  0.00     0.028 A 
HETATM    3  C   ZIN N   1     -19.675 -90.371   9.100  0.00  0.00     0.102 A 
HETATM    4  C   ZIN N   1     -19.423 -91.526   9.849  0.00  0.00     0.284 A 
HETATM    5  O   ZIN N   1     -20.318 -92.304  10.128  0.00  0.00    -0.266 OA
HETATM    6  N   ZIN N   1     -18.144 -91.753  10.254  0.00  0.00    -0.046 N 
HETATM    7  N   ZIN N   1     -17.674 -92.762  10.956  0.00  0.00    -0.256 N 
ATOM      8  HN  ZIN N   1     -18.202 -93.553  11.325  1.00  0.00     0.190 HD
HETATM    9  C   ZIN N   1     -16.344 -92.536  11.088  0.00  0.00     0.205 A 
HETATM   10  N   ZIN N   1     -15.972 -91.378  10.472  0.00  0.00    -0.168 N 
HETATM   11  C   ZIN N   1     -17.138 -90.933   9.969  0.00  0.00     0.708 A 
HETATM   12  N   ZIN N   1     -17.329 -89.798   9.246  0.00  0.00    -0.194 N 
ATOM     13  HN  ZIN N   1     -16.547 -89.178   9.038  1.00  0.00     0.184 HD
HETATM   14  H   ZIN N   1     -15.077 -90.973  10.410  0.00  0.00     0.186 HD
ENDROOT
BRANCH   9  15
HETATM   15  C   ZIN N   1     -15.400 -93.435  11.810  0.00  0.00     0.289 C 
HETATM   16  O   ZIN N   1     -15.223 -93.246  13.005  0.00  0.00    -0.264 OA
HETATM   17  N   ZIN N   1     -14.747 -94.471  11.185  0.00  0.00    -0.345 N 
HETATM   18  C   ZIN N   1     -13.865 -95.377  11.885  0.00  0.00     0.126 C 
HETATM   19  C   ZIN N   1     -14.913 -94.823   9.791  0.00  0.00     0.126 C 
HETATM   20  C   ZIN N   1     -13.855 -96.595  10.962  0.00  0.00     0.021 C 
HETATM   21  C   ZIN N   1     -13.909 -95.954   9.586  0.00  0.00     0.021 C 
ENDBRANCH   9  15
TORSDOF 1
ENDMDL
MODEL 5
REMARK VINA RESULT:      -7.8     15.573     18.129
REMARK  1 active torsions:
REMARK  status: ('A' for Active; 'I' for Inactive)
REMARK    1  A    between atoms: C_9  and  C_10 
REMARK       I    between atoms: C_10  and  N_12 
ROOT
HETATM    1  C   ZIN N   1     -22.736 -88.966   8.472  0.00  0.00     0.069 C 
HETATM    2  C   ZIN N   1     -21.675 -90.018   8.431  0.00  0.00     0.028 A 
HETATM    3  C   ZIN N   1     -21.201 -90.487   7.181  0.00  0.00     0.102 A 
HETATM    4  C   ZIN N   1     -20.206 -91.472   7.167  0.00  0.00     0.284 A 
HETATM    5  O   ZIN N   1     -19.765 -91.906   6.118  0.00  0.00    -0.266 OA
HETATM    6  N   ZIN N   1     -19.746 -91.927   8.364  0.00  0.00    -0.046 N 
HETATM    7  N   ZIN N   1     -18.822 -92.835   8.595  0.00  0.00    -0.256 N 
ATOM      8  HN  ZIN N   1     -18.293 -93.363   7.901  1.00  0.00     0.190 HD
HETATM    9  C   ZIN N   1     -18.719 -92.926   9.943  0.00  0.00     0.205 A 
HETATM   10  N   ZIN N   1     -19.582 -92.075  10.567  0.00  0.00    -0.168 N 
HETATM   11  C   ZIN N   1     -20.198 -91.478   9.530  0.00  0.00     0.708 A 
HETATM   12  N   ZIN N   1     -21.163 -90.524   9.600  0.00  0.00    -0.194 N 
ATOM     13  HN  ZIN N   1     -21.501 -90.192  10.503  1.00  0.00     0.184 HD
HETATM   14  H   ZIN N   1     -19.720 -91.934  11.532  0.00  0.00     0.186 HD
ENDROOT
BRANCH   9  15
HETATM   15  C   ZIN N   1     -17.780 -93.833  10.661  0.00  0.00     0.289 C 
HETATM   16  O   ZIN N   1     -18.091 -95.010  10.778  0.00  0.00    -0.264 OA
HETATM   17  N   ZIN N   1     -16.580 -93.397  11.172  0.00  0.00    -0.345 N 
HETATM   18  C   ZIN N   1     -15.642 -94.278  11.829  0.00  0.00     0.126 C 
HETATM   19  C   ZIN N   1     -16.083 -92.043  11.053  0.00  0.00     0.126 C 
HETATM   20  C   ZIN N   1     -14.330 -93.506  11.699  0.00  0.00     0.021 C 
HETATM   21  C   ZIN N   1     -14.787 -92.067  11.859  0.00  0.00     0.021 C 
ENDBRANCH   9  15
TORSDOF 1
ENDMDL
MODEL 6
REMARK VINA RESULT:      -7.8      2.052      6.424
REMARK  1 active torsions:
REMARK  status: ('A' for Active; 'I' for Inactive)
REMARK    1  A    between atoms: C_9  and  C_10 
REMARK       I    between atoms: C_10  and  N_12 
ROOT
HETATM    1  C   ZIN N   1     -16.861 -74.138   1.243  0.00  0.00     0.069 C 
HETATM    2  C   ZIN N   1     -18.062 -74.931   1.649  0.00  0.00     0.028 A 
HETATM    3  C   ZIN N   1     -19.059 -74.329   2.456  0.00  0.00     0.102 A 
HETATM    4  C   ZIN N   1     -20.175 -75.089   2.823  0.00  0.00     0.284 A 
HETATM    5  O   ZIN N   1     -21.059 -74.616   3.515  0.00  0.00    -0.266 OA
HETATM    6  N   ZIN N   1     -20.241 -76.374   2.380  0.00  0.00    -0.046 N 
HETATM    7  N   ZIN N   1     -21.185 -77.266   2.591  0.00  0.00    -0.256 N 
ATOM      8  HN  ZIN N   1     -22.037 -77.141   3.139  1.00  0.00     0.190 HD
HETATM    9  C   ZIN N   1     -20.795 -78.384   1.934  0.00  0.00     0.205 A 
HETATM   10  N   ZIN N   1     -19.598 -78.201   1.307  0.00  0.00    -0.168 N 
HETATM   11  C   ZIN N   1     -19.300 -76.927   1.621  0.00  0.00     0.708 A 
HETATM   12  N   ZIN N   1     -18.197 -76.234   1.238  0.00  0.00    -0.194 N 
ATOM     13  HN  ZIN N   1     -17.483 -76.674   0.658  1.00  0.00     0.184 HD
HETATM   14  H   ZIN N   1     -19.083 -78.840   0.762  0.00  0.00     0.186 HD
ENDROOT
BRANCH   9  15
HETATM   15  C   ZIN N   1     -21.571 -79.656   1.891  0.00  0.00     0.289 C 
HETATM   16  O   ZIN N   1     -22.611 -79.676   1.248  0.00  0.00    -0.264 OA
HETATM   17  N   ZIN N   1     -21.147 -80.799   2.527  0.00  0.00    -0.345 N 
HETATM   18  C   ZIN N   1     -21.868 -82.049   2.453  0.00  0.00     0.126 C 
HETATM   19  C   ZIN N   1     -19.912 -80.911   3.274  0.00  0.00     0.126 C 
HETATM   20  C   ZIN N   1     -20.782 -83.067   2.801  0.00  0.00     0.021 C 
HETATM   21  C   ZIN N   1     -19.969 -82.325   3.846  0.00  0.00     0.021 C 
ENDBRANCH   9  15
TORSDOF 1
ENDMDL
MODEL 7
REMARK VINA RESULT:      -7.6     13.203     16.760
REMARK  1 active torsions:
REMARK  status: ('A' for Active; 'I' for Inactive)
REMARK    1  A    between atoms: C_9  and  C_10 
REMARK       I    between atoms: C_10  and  N_12 
ROOT
HETATM    1  C   ZIN N   1     -18.057 -87.212   4.656  0.00  0.00     0.069 C 
HETATM    2  C   ZIN N   1     -18.309 -87.970   5.920  0.00  0.00     0.028 A 
HETATM    3  C   ZIN N   1     -19.582 -87.897   6.538  0.00  0.00     0.102 A 
HETATM    4  C   ZIN N   1     -19.797 -88.616   7.720  0.00  0.00     0.284 A 
HETATM    5  O   ZIN N   1     -20.874 -88.586   8.288  0.00  0.00    -0.266 OA
HETATM    6  N   ZIN N   1     -18.762 -89.351   8.212  0.00  0.00    -0.046 N 
HETATM    7  N   ZIN N   1     -18.733 -90.101   9.292  0.00  0.00    -0.256 N 
ATOM      8  HN  ZIN N   1     -19.493 -90.254   9.956  1.00  0.00     0.190 HD
HETATM    9  C   ZIN N   1     -17.486 -90.630   9.344  0.00  0.00     0.205 A 
HETATM   10  N   ZIN N   1     -16.723 -90.210   8.295  0.00  0.00    -0.168 N 
HETATM   11  C   ZIN N   1     -17.573 -89.412   7.622  0.00  0.00     0.708 A 
HETATM   12  N   ZIN N   1     -17.313 -88.734   6.475  0.00  0.00    -0.194 N 
ATOM     13  HN  ZIN N   1     -16.394 -88.790   6.035  1.00  0.00     0.184 HD
HETATM   14  H   ZIN N   1     -15.788 -90.434   8.083  0.00  0.00     0.186 HD
ENDROOT
BRANCH   9  15
HETATM   15  C   ZIN N   1     -17.002 -91.557  10.405  0.00  0.00     0.289 C 
HETATM   16  O   ZIN N   1     -16.648 -91.077  11.473  0.00  0.00    -0.264 OA
HETATM   17  N   ZIN N   1     -16.962 -92.920  10.230  0.00  0.00    -0.345 N 
HETATM   18  C   ZIN N   1     -16.539 -93.832  11.269  0.00  0.00     0.126 C 
HETATM   19  C   ZIN N   1     -17.400 -93.606   9.033  0.00  0.00     0.126 C 
HETATM   20  C   ZIN N   1     -17.178 -95.146  10.824  0.00  0.00     0.021 C 
HETATM   21  C   ZIN N   1     -17.056 -95.066   9.312  0.00  0.00     0.021 C 
ENDBRANCH   9  15
TORSDOF 1
ENDMDL
MODEL 8
REMARK VINA RESULT:      -7.5      2.857      4.124
REMARK  1 active torsions:
REMARK  status: ('A' for Active; 'I' for Inactive)
REMARK    1  A    between atoms: C_9  and  C_10 
REMARK       I    between atoms: C_10  and  N_12 
ROOT
HETATM    1  C   ZIN N   1     -18.773 -84.238   2.711  0.00  0.00     0.069 C 
HETATM    2  C   ZIN N   1     -18.861 -82.825   3.193  0.00  0.00     0.028 A 
HETATM    3  C   ZIN N   1     -18.468 -82.511   4.518  0.00  0.00     0.102 A 
HETATM    4  C   ZIN N   1     -18.557 -81.182   4.947  0.00  0.00     0.284 A 
HETATM    5  O   ZIN N   1     -18.230 -80.862   6.077  0.00  0.00    -0.266 OA
HETATM    6  N   ZIN N   1     -19.019 -80.258   4.061  0.00  0.00    -0.046 N 
HETATM    7  N   ZIN N   1     -19.182 -78.964   4.237  0.00  0.00    -0.256 N 
ATOM      8  HN  ZIN N   1     -18.992 -78.431   5.087  1.00  0.00     0.190 HD
HETATM    9  C   ZIN N   1     -19.654 -78.485   3.061  0.00  0.00     0.205 A 
HETATM   10  N   ZIN N   1     -19.794 -79.480   2.139  0.00  0.00    -0.168 N 
HETATM   11  C   ZIN N   1     -19.382 -80.565   2.820  0.00  0.00     0.708 A 
HETATM   12  N   ZIN N   1     -19.317 -81.839   2.354  0.00  0.00    -0.194 N 
ATOM     13  HN  ZIN N   1     -19.602 -82.058   1.400  1.00  0.00     0.184 HD
HETATM   14  H   ZIN N   1     -20.114 -79.419   1.210  0.00  0.00     0.186 HD
ENDROOT
BRANCH   9  15
HETATM   15  C   ZIN N   1     -19.978 -77.055   2.798  0.00  0.00     0.289 C 
HETATM   16  O   ZIN N   1     -21.111 -76.665   3.045  0.00  0.00    -0.264 OA
HETATM   17  N   ZIN N   1     -19.048 -76.167   2.313  0.00  0.00    -0.345 N 
HETATM   18  C   ZIN N   1     -19.339 -74.767   2.098  0.00  0.00     0.126 C 
HETATM   19  C   ZIN N   1     -17.668 -76.498   2.031  0.00  0.00     0.126 C 
HETATM   20  C   ZIN N   1     -17.945 -74.142   2.114  0.00  0.00     0.021 C 
HETATM   21  C   ZIN N   1     -17.107 -75.210   1.433  0.00  0.00     0.021 C 
ENDBRANCH   9  15
TORSDOF 1
ENDMDL
MODEL 9
REMARK VINA RESULT:      -7.5     32.382     34.478
REMARK  1 active torsions:
REMARK  status: ('A' for Active; 'I' for Inactive)
REMARK    1  A    between atoms: C_9  and  C_10 
REMARK       I    between atoms: C_10  and  N_12 
ROOT
HETATM    1  C   ZIN N   1      -5.205 -44.189  -8.321  0.00  0.00     0.069 C 
HETATM    2  C   ZIN N   1      -6.315 -44.135  -7.321  0.00  0.00     0.028 A 
HETATM    3  C   ZIN N   1      -7.345 -43.173  -7.470  0.00  0.00     0.102 A 
HETATM    4  C   ZIN N   1      -8.375 -43.141  -6.522  0.00  0.00     0.284 A 
HETATM    5  O   ZIN N   1      -9.284 -42.334  -6.607  0.00  0.00    -0.266 OA
HETATM    6  N   ZIN N   1      -8.329 -44.042  -5.504  0.00  0.00    -0.046 N 
HETATM    7  N   ZIN N   1      -9.179 -44.201  -4.512  0.00  0.00    -0.256 N 
ATOM      8  HN  ZIN N   1     -10.025 -43.659  -4.335  1.00  0.00     0.190 HD
HETATM    9  C   ZIN N   1      -8.699 -45.230  -3.773  0.00  0.00     0.205 A 
HETATM   10  N   ZIN N   1      -7.540 -45.723  -4.296  0.00  0.00    -0.168 N 
HETATM   11  C   ZIN N   1      -7.358 -44.941  -5.377  0.00  0.00     0.708 A 
HETATM   12  N   ZIN N   1      -6.335 -45.014  -6.267  0.00  0.00    -0.194 N 
ATOM     13  HN  ZIN N   1      -5.596 -45.708  -6.153  1.00  0.00     0.184 HD
HETATM   14  H   ZIN N   1      -6.980 -46.462  -3.968  0.00  0.00     0.186 HD
ENDROOT
BRANCH   9  15
HETATM   15  C   ZIN N   1      -9.351 -45.767  -2.545  0.00  0.00     0.289 C 
HETATM   16  O   ZIN N   1      -9.929 -46.842  -2.621  0.00  0.00    -0.264 OA
HETATM   17  N   ZIN N   1      -9.305 -45.109  -1.339  0.00  0.00    -0.345 N 
HETATM   18  C   ZIN N   1      -9.894 -45.642  -0.132  0.00  0.00     0.126 C 
HETATM   19  C   ZIN N   1      -8.611 -43.858  -1.114  0.00  0.00     0.126 C 
HETATM   20  C   ZIN N   1      -9.130 -44.891   0.958  0.00  0.00     0.021 C 
HETATM   21  C   ZIN N   1      -8.950 -43.518   0.335  0.00  0.00     0.021 C 
ENDBRANCH   9  15
TORSDOF 1
ENDMDL
