MODEL 1
REMARK VINA RESULT:      -9.6      0.000      0.000
REMARK  3 active torsions:
REMARK  status: ('A' for Active; 'I' for Inactive)
REMARK    1  A    between atoms: C_4  and  C_5 
REMARK    2  A    between atoms: C_5  and  N_6 
REMARK    3  A    between atoms: C_10  and  C_11 
ROOT
HETATM    1  N   ZIN N   1      26.367 -21.089 -28.558  0.00  0.00    -0.209 N 
HETATM    2  N   ZIN N   1      26.322 -22.252 -27.929  0.00  0.00    -0.002 NA
HETATM    3  N   ZIN N   1      26.154 -23.215 -28.820  0.00  0.00    -0.266 N 
ATOM      4  HN  ZIN N   1      26.080 -24.216 -28.637  1.00  0.00     0.186 HD
HETATM    5  C   ZIN N   1      26.101 -22.601 -30.018  0.00  0.00     0.145 A 
HETATM    6  N   ZIN N   1      26.236 -21.267 -29.865  0.00  0.00    -0.268 N 
ATOM      7  HN  ZIN N   1      26.237 -20.553 -30.594  1.00  0.00     0.190 HD
ENDROOT
BRANCH   1   8
HETATM    8  C   ZIN N   1      26.546 -19.800 -27.891  0.00  0.00     0.245 C 
BRANCH   8   9
HETATM    9  C   ZIN N   1      25.909 -19.795 -26.529  0.00  0.00     0.121 A 
HETATM   10  N   ZIN N   1      26.250 -20.649 -25.535  0.00  0.00    -0.294 N 
HETATM   11  C   ZIN N   1      25.431 -20.268 -24.524  0.00  0.00     0.340 A 
HETATM   12  H   ZIN N   1      26.925 -21.367 -25.544  0.00  0.00     0.172 HD
HETATM   13  O   ZIN N   1      25.416 -20.786 -23.422  0.00  0.00    -0.245 OA
HETATM   14  N   ZIN N   1      24.636 -19.240 -24.890  0.00  0.00    -0.250 N 
HETATM   15  N   ZIN N   1      24.932 -18.942 -26.144  0.00  0.00    -0.283 N 
HETATM   16  H   ZIN N   1      23.915 -18.752 -24.312  0.00  0.00     0.192 HD
ATOM     17  HN  ZIN N   1      24.506 -18.209 -26.711  1.00  0.00     0.188 HD
ENDBRANCH   8   9
ENDBRANCH   1   8
BRANCH   5  18
HETATM   18  C   ZIN N   1      25.914 -23.310 -31.297  0.00  0.00     0.017 A 
HETATM   19  C   ZIN N   1      24.848 -23.004 -32.193  0.00  0.00     0.023 A 
HETATM   20  C   ZIN N   1      24.845 -23.783 -33.351  0.00  0.00     0.050 A 
HETATM   21  S   ZIN N   1      26.141 -24.810 -33.229  0.00  0.00    -0.113 SA
HETATM   22  C   ZIN N   1      26.749 -24.335 -31.757  0.00  0.00     0.065 A 
ENDBRANCH   5  18
TORSDOF 3
ENDMDL
MODEL 2
REMARK VINA RESULT:      -9.1      4.541      5.472
REMARK  3 active torsions:
REMARK  status: ('A' for Active; 'I' for Inactive)
REMARK    1  A    between atoms: C_4  and  C_5 
REMARK    2  A    between atoms: C_5  and  N_6 
REMARK    3  A    between atoms: C_10  and  C_11 
ROOT
HETATM    1  N   ZIN N   1      27.662 -19.123 -29.251  0.00  0.00    -0.209 N 
HETATM    2  N   ZIN N   1      26.710 -18.227 -29.449  0.00  0.00    -0.002 NA
HETATM    3  N   ZIN N   1      27.159 -17.299 -30.278  0.00  0.00    -0.266 N 
ATOM      4  HN  ZIN N   1      26.655 -16.479 -30.616  1.00  0.00     0.186 HD
HETATM    5  C   ZIN N   1      28.421 -17.661 -30.583  0.00  0.00     0.145 A 
HETATM    6  N   ZIN N   1      28.746 -18.805 -29.946  0.00  0.00    -0.268 N 
ATOM      7  HN  ZIN N   1      29.630 -19.314 -29.989  1.00  0.00     0.190 HD
ENDROOT
BRANCH   1   8
HETATM    8  C   ZIN N   1      27.520 -20.297 -28.391  0.00  0.00     0.245 C 
BRANCH   8   9
HETATM    9  C   ZIN N   1      26.799 -19.958 -27.116  0.00  0.00     0.121 A 
HETATM   10  N   ZIN N   1      26.005 -20.828 -26.446  0.00  0.00    -0.294 N 
HETATM   11  C   ZIN N   1      25.592 -20.092 -25.385  0.00  0.00     0.340 A 
HETATM   12  H   ZIN N   1      25.785 -21.761 -26.673  0.00  0.00     0.172 HD
HETATM   13  O   ZIN N   1      24.851 -20.507 -24.512  0.00  0.00    -0.245 OA
HETATM   14  N   ZIN N   1      26.107 -18.845 -25.414  0.00  0.00    -0.250 N 
HETATM   15  N   ZIN N   1      26.862 -18.758 -26.496  0.00  0.00    -0.283 N 
HETATM   16  H   ZIN N   1      25.956 -18.075 -24.726  0.00  0.00     0.192 HD
ATOM     17  HN  ZIN N   1      27.391 -17.941 -26.803  1.00  0.00     0.188 HD
ENDBRANCH   8   9
ENDBRANCH   1   8
BRANCH   5  18
HETATM   18  C   ZIN N   1      29.301 -16.892 -31.482  0.00  0.00     0.017 A 
HETATM   19  C   ZIN N   1      29.413 -17.180 -32.874  0.00  0.00     0.023 A 
HETATM   20  C   ZIN N   1      30.294 -16.338 -33.554  0.00  0.00     0.050 A 
HETATM   21  S   ZIN N   1      30.898 -15.282 -32.428  0.00  0.00    -0.113 SA
HETATM   22  C   ZIN N   1      30.100 -15.819 -31.072  0.00  0.00     0.065 A 
ENDBRANCH   5  18
TORSDOF 3
ENDMDL
MODEL 3
REMARK VINA RESULT:      -8.7      4.387      5.245
REMARK  3 active torsions:
REMARK  status: ('A' for Active; 'I' for Inactive)
REMARK    1  A    between atoms: C_4  and  C_5 
REMARK    2  A    between atoms: C_5  and  N_6 
REMARK    3  A    between atoms: C_10  and  C_11 
ROOT
HETATM    1  N   ZIN N   1      26.818 -18.542 -28.875  0.00  0.00    -0.209 N 
HETATM    2  N   ZIN N   1      25.561 -18.690 -29.258  0.00  0.00    -0.002 NA
HETATM    3  N   ZIN N   1      25.329 -17.891 -30.286  0.00  0.00    -0.266 N 
ATOM      4  HN  ZIN N   1      24.451 -17.782 -30.795  1.00  0.00     0.186 HD
HETATM    5  C   ZIN N   1      26.490 -17.250 -30.521  0.00  0.00     0.145 A 
HETATM    6  N   ZIN N   1      27.432 -17.653 -29.643  0.00  0.00    -0.268 N 
ATOM      7  HN  ZIN N   1      28.402 -17.342 -29.583  1.00  0.00     0.190 HD
ENDROOT
BRANCH   1   8
HETATM    8  C   ZIN N   1      27.430 -19.271 -27.765  0.00  0.00     0.245 C 
BRANCH   8   9
HETATM    9  C   ZIN N   1      26.445 -19.507 -26.654  0.00  0.00     0.121 A 
HETATM   10  N   ZIN N   1      26.486 -20.579 -25.827  0.00  0.00    -0.294 N 
HETATM   11  C   ZIN N   1      25.428 -20.360 -25.008  0.00  0.00     0.340 A 
HETATM   12  H   ZIN N   1      27.125 -21.329 -25.822  0.00  0.00     0.172 HD
HETATM   13  O   ZIN N   1      25.102 -21.099 -24.097  0.00  0.00    -0.245 OA
HETATM   14  N   ZIN N   1      24.782 -19.218 -25.325  0.00  0.00    -0.250 N 
HETATM   15  N   ZIN N   1      25.415 -18.683 -26.355  0.00  0.00    -0.283 N 
HETATM   16  H   ZIN N   1      23.940 -18.810 -24.862  0.00  0.00     0.192 HD
ATOM     17  HN  ZIN N   1      25.174 -17.813 -26.832  1.00  0.00     0.188 HD
ENDBRANCH   8   9
ENDBRANCH   1   8
BRANCH   5  18
HETATM   18  C   ZIN N   1      26.675 -16.249 -31.589  0.00  0.00     0.017 A 
HETATM   19  C   ZIN N   1      25.583 -15.543 -32.173  0.00  0.00     0.023 A 
HETATM   20  C   ZIN N   1      25.964 -14.637 -33.163  0.00  0.00     0.050 A 
HETATM   21  S   ZIN N   1      27.615 -14.739 -33.283  0.00  0.00    -0.113 SA
HETATM   22  C   ZIN N   1      27.917 -15.893 -32.126  0.00  0.00     0.065 A 
ENDBRANCH   5  18
TORSDOF 3
ENDMDL
MODEL 4
REMARK VINA RESULT:      -8.5      3.731      4.962
REMARK  3 active torsions:
REMARK  status: ('A' for Active; 'I' for Inactive)
REMARK    1  A    between atoms: C_4  and  C_5 
REMARK    2  A    between atoms: C_5  and  N_6 
REMARK    3  A    between atoms: C_10  and  C_11 
ROOT
HETATM    1  N   ZIN N   1      26.852 -19.820 -28.256  0.00  0.00    -0.209 N 
HETATM    2  N   ZIN N   1      27.163 -18.833 -27.432  0.00  0.00    -0.002 NA
HETATM    3  N   ZIN N   1      27.506 -17.772 -28.143  0.00  0.00    -0.266 N 
ATOM      4  HN  ZIN N   1      27.797 -16.861 -27.789  1.00  0.00     0.186 HD
HETATM    5  C   ZIN N   1      27.391 -18.144 -29.433  0.00  0.00     0.145 A 
HETATM    6  N   ZIN N   1      26.980 -19.426 -29.515  0.00  0.00    -0.268 N 
ATOM      7  HN  ZIN N   1      26.805 -19.973 -30.359  1.00  0.00     0.190 HD
ENDROOT
BRANCH   1   8
HETATM    8  C   ZIN N   1      26.423 -21.148 -27.821  0.00  0.00     0.245 C 
BRANCH   8   9
HETATM    9  C   ZIN N   1      26.117 -21.172 -26.349  0.00  0.00     0.121 A 
HETATM   10  N   ZIN N   1      25.132 -20.442 -25.774  0.00  0.00    -0.294 N 
HETATM   11  C   ZIN N   1      25.234 -20.788 -24.467  0.00  0.00     0.340 A 
HETATM   12  H   ZIN N   1      24.500 -19.817 -26.199  0.00  0.00     0.172 HD
HETATM   13  O   ZIN N   1      24.515 -20.353 -23.585  0.00  0.00    -0.245 OA
HETATM   14  N   ZIN N   1      26.229 -21.678 -24.264  0.00  0.00    -0.250 N 
HETATM   15  N   ZIN N   1      26.784 -21.919 -25.440  0.00  0.00    -0.283 N 
HETATM   16  H   ZIN N   1      26.526 -22.111 -23.362  0.00  0.00     0.192 HD
ATOM     17  HN  ZIN N   1      27.564 -22.550 -25.625  1.00  0.00     0.188 HD
ENDBRANCH   8   9
ENDBRANCH   1   8
BRANCH   5  18
HETATM   18  C   ZIN N   1      27.687 -17.256 -30.574  0.00  0.00     0.017 A 
HETATM   19  C   ZIN N   1      29.009 -17.071 -31.076  0.00  0.00     0.023 A 
HETATM   20  C   ZIN N   1      29.080 -16.196 -32.161  0.00  0.00     0.050 A 
HETATM   21  S   ZIN N   1      27.530 -15.688 -32.458  0.00  0.00    -0.113 SA
HETATM   22  C   ZIN N   1      26.720 -16.522 -31.270  0.00  0.00     0.065 A 
ENDBRANCH   5  18
TORSDOF 3
ENDMDL
MODEL 5
REMARK VINA RESULT:      -8.0      4.919      6.492
REMARK  3 active torsions:
REMARK  status: ('A' for Active; 'I' for Inactive)
REMARK    1  A    between atoms: C_4  and  C_5 
REMARK    2  A    between atoms: C_5  and  N_6 
REMARK    3  A    between atoms: C_10  and  C_11 
ROOT
HETATM    1  N   ZIN N   1      27.512 -19.556 -28.614  0.00  0.00    -0.209 N 
HETATM    2  N   ZIN N   1      26.529 -20.218 -29.201  0.00  0.00    -0.002 NA
HETATM    3  N   ZIN N   1      25.742 -20.733 -28.272  0.00  0.00    -0.266 N 
ATOM      4  HN  ZIN N   1      24.904 -21.296 -28.417  1.00  0.00     0.186 HD
HETATM    5  C   ZIN N   1      26.277 -20.360 -27.092  0.00  0.00     0.145 A 
HETATM    6  N   ZIN N   1      27.386 -19.619 -27.296  0.00  0.00    -0.268 N 
ATOM      7  HN  ZIN N   1      27.994 -19.200 -26.591  1.00  0.00     0.190 HD
ENDROOT
BRANCH   1   8
HETATM    8  C   ZIN N   1      28.573 -18.852 -29.332  0.00  0.00     0.245 C 
BRANCH   8   9
HETATM    9  C   ZIN N   1      28.018 -17.742 -30.182  0.00  0.00     0.121 A 
HETATM   10  N   ZIN N   1      26.700 -17.585 -30.446  0.00  0.00    -0.294 N 
HETATM   11  C   ZIN N   1      26.686 -16.476 -31.226  0.00  0.00     0.340 A 
HETATM   12  H   ZIN N   1      25.941 -18.137 -30.146  0.00  0.00     0.172 HD
HETATM   13  O   ZIN N   1      25.676 -15.976 -31.688  0.00  0.00    -0.245 OA
HETATM   14  N   ZIN N   1      27.930 -15.992 -31.423  0.00  0.00    -0.250 N 
HETATM   15  N   ZIN N   1      28.766 -16.782 -30.772  0.00  0.00    -0.283 N 
HETATM   16  H   ZIN N   1      28.209 -15.153 -31.980  0.00  0.00     0.192 HD
ATOM     17  HN  ZIN N   1      29.781 -16.685 -30.723  1.00  0.00     0.188 HD
ENDBRANCH   8   9
ENDBRANCH   1   8
BRANCH   5  18
HETATM   18  C   ZIN N   1      25.712 -20.729 -25.781  0.00  0.00     0.017 A 
HETATM   19  C   ZIN N   1      25.436 -22.081 -25.420  0.00  0.00     0.023 A 
HETATM   20  C   ZIN N   1      24.910 -22.224 -24.136  0.00  0.00     0.050 A 
HETATM   21  S   ZIN N   1      24.803 -20.696 -23.499  0.00  0.00    -0.113 SA
HETATM   22  C   ZIN N   1      25.399 -19.811 -24.773  0.00  0.00     0.065 A 
ENDBRANCH   5  18
TORSDOF 3
ENDMDL
MODEL 6
REMARK VINA RESULT:      -8.0     25.820     28.381
REMARK  3 active torsions:
REMARK  status: ('A' for Active; 'I' for Inactive)
REMARK    1  A    between atoms: C_4  and  C_5 
REMARK    2  A    between atoms: C_5  and  N_6 
REMARK    3  A    between atoms: C_10  and  C_11 
ROOT
HETATM    1  N   ZIN N   1       2.640 -13.567 -13.949  0.00  0.00    -0.209 N 
HETATM    2  N   ZIN N   1       3.430 -13.960 -12.964  0.00  0.00    -0.002 NA
HETATM    3  N   ZIN N   1       4.634 -14.208 -13.452  0.00  0.00    -0.266 N 
ATOM      4  HN  ZIN N   1       5.453 -14.529 -12.935  1.00  0.00     0.186 HD
HETATM    5  C   ZIN N   1       4.554 -13.950 -14.772  0.00  0.00     0.145 A 
HETATM    6  N   ZIN N   1       3.308 -13.545 -15.094  0.00  0.00    -0.268 N 
ATOM      7  HN  ZIN N   1       2.957 -13.280 -16.015  1.00  0.00     0.190 HD
ENDROOT
BRANCH   1   8
HETATM    8  C   ZIN N   1       1.234 -13.203 -13.780  0.00  0.00     0.245 C 
BRANCH   8   9
HETATM    9  C   ZIN N   1       0.799 -13.346 -12.348  0.00  0.00     0.121 A 
HETATM   10  N   ZIN N   1      -0.175 -14.193 -11.938  0.00  0.00    -0.294 N 
HETATM   11  C   ZIN N   1      -0.207 -13.980 -10.600  0.00  0.00     0.340 A 
HETATM   12  H   ZIN N   1      -0.721 -14.810 -12.478  0.00  0.00     0.172 HD
HETATM   13  O   ZIN N   1      -0.957 -14.556  -9.832  0.00  0.00    -0.245 OA
HETATM   14  N   ZIN N   1       0.697 -13.051 -10.223  0.00  0.00    -0.250 N 
HETATM   15  N   ZIN N   1       1.328 -12.653 -11.314  0.00  0.00    -0.283 N 
HETATM   16  H   ZIN N   1       0.885 -12.697  -9.259  0.00  0.00     0.192 HD
ATOM     17  HN  ZIN N   1       2.072 -11.956 -11.365  1.00  0.00     0.188 HD
ENDBRANCH   8   9
ENDBRANCH   1   8
BRANCH   5  18
HETATM   18  C   ZIN N   1       5.683 -14.105 -15.709  0.00  0.00     0.017 A 
HETATM   19  C   ZIN N   1       5.711 -15.117 -16.713  0.00  0.00     0.023 A 
HETATM   20  C   ZIN N   1       6.862 -15.096 -17.501  0.00  0.00     0.050 A 
HETATM   21  S   ZIN N   1       7.794 -13.845 -16.938  0.00  0.00    -0.113 SA
HETATM   22  C   ZIN N   1       6.819 -13.288 -15.713  0.00  0.00     0.065 A 
ENDBRANCH   5  18
TORSDOF 3
ENDMDL
MODEL 7
REMARK VINA RESULT:      -7.9      5.373      7.246
REMARK  3 active torsions:
REMARK  status: ('A' for Active; 'I' for Inactive)
REMARK    1  A    between atoms: C_4  and  C_5 
REMARK    2  A    between atoms: C_5  and  N_6 
REMARK    3  A    between atoms: C_10  and  C_11 
ROOT
HETATM    1  N   ZIN N   1      28.031 -17.751 -30.345  0.00  0.00    -0.209 N 
HETATM    2  N   ZIN N   1      26.730 -17.516 -30.325  0.00  0.00    -0.002 NA
HETATM    3  N   ZIN N   1      26.146 -18.401 -29.535  0.00  0.00    -0.266 N 
ATOM      4  HN  ZIN N   1      25.151 -18.475 -29.323  1.00  0.00     0.186 HD
HETATM    5  C   ZIN N   1      27.137 -19.187 -29.071  0.00  0.00     0.145 A 
HETATM    6  N   ZIN N   1      28.324 -18.786 -29.571  0.00  0.00    -0.268 N 
ATOM      7  HN  ZIN N   1      29.245 -19.190 -29.393  1.00  0.00     0.190 HD
ENDROOT
BRANCH   1   8
HETATM    8  C   ZIN N   1      28.996 -16.965 -31.113  0.00  0.00     0.245 C 
BRANCH   8   9
HETATM    9  C   ZIN N   1      28.645 -16.941 -32.575  0.00  0.00     0.121 A 
HETATM   10  N   ZIN N   1      27.390 -16.749 -33.044  0.00  0.00    -0.294 N 
HETATM   11  C   ZIN N   1      27.566 -16.802 -34.387  0.00  0.00     0.340 A 
HETATM   12  H   ZIN N   1      26.558 -16.606 -32.536  0.00  0.00     0.172 HD
HETATM   13  O   ZIN N   1      26.670 -16.669 -35.201  0.00  0.00    -0.245 OA
HETATM   14  N   ZIN N   1      28.858 -17.016 -34.711  0.00  0.00    -0.250 N 
HETATM   15  N   ZIN N   1      29.536 -17.105 -33.579  0.00  0.00    -0.283 N 
HETATM   16  H   ZIN N   1      29.273 -17.100 -35.665  0.00  0.00     0.192 HD
ATOM     17  HN  ZIN N   1      30.540 -17.264 -33.483  1.00  0.00     0.188 HD
ENDBRANCH   8   9
ENDBRANCH   1   8
BRANCH   5  18
HETATM   18  C   ZIN N   1      26.924 -20.322 -28.153  0.00  0.00     0.017 A 
HETATM   19  C   ZIN N   1      26.349 -20.161 -26.858  0.00  0.00     0.023 A 
HETATM   20  C   ZIN N   1      26.228 -21.354 -26.145  0.00  0.00     0.050 A 
HETATM   21  S   ZIN N   1      26.829 -22.551 -27.124  0.00  0.00    -0.113 SA
HETATM   22  C   ZIN N   1      27.255 -21.648 -28.453  0.00  0.00     0.065 A 
ENDBRANCH   5  18
TORSDOF 3
ENDMDL
MODEL 8
REMARK VINA RESULT:      -7.8      5.195      6.447
REMARK  3 active torsions:
REMARK  status: ('A' for Active; 'I' for Inactive)
REMARK    1  A    between atoms: C_4  and  C_5 
REMARK    2  A    between atoms: C_5  and  N_6 
REMARK    3  A    between atoms: C_10  and  C_11 
ROOT
HETATM    1  N   ZIN N   1      27.390 -17.865 -29.335  0.00  0.00    -0.209 N 
HETATM    2  N   ZIN N   1      26.554 -17.461 -30.277  0.00  0.00    -0.002 NA
HETATM    3  N   ZIN N   1      27.246 -16.896 -31.252  0.00  0.00    -0.266 N 
ATOM      4  HN  ZIN N   1      26.877 -16.487 -32.111  1.00  0.00     0.186 HD
HETATM    5  C   ZIN N   1      28.537 -16.970 -30.875  0.00  0.00     0.145 A 
HETATM    6  N   ZIN N   1      28.639 -17.578 -29.675  0.00  0.00    -0.268 N 
ATOM      7  HN  ZIN N   1      29.489 -17.775 -29.145  1.00  0.00     0.190 HD
ENDROOT
BRANCH   1   8
HETATM    8  C   ZIN N   1      26.978 -18.538 -28.104  0.00  0.00     0.245 C 
BRANCH   8   9
HETATM    9  C   ZIN N   1      26.657 -19.986 -28.352  0.00  0.00     0.121 A 
HETATM   10  N   ZIN N   1      26.828 -20.601 -29.546  0.00  0.00    -0.294 N 
HETATM   11  C   ZIN N   1      26.419 -21.867 -29.287  0.00  0.00     0.340 A 
HETATM   12  H   ZIN N   1      27.167 -20.223 -30.391  0.00  0.00     0.172 HD
HETATM   13  O   ZIN N   1      26.415 -22.767 -30.108  0.00  0.00    -0.245 OA
HETATM   14  N   ZIN N   1      26.020 -22.008 -28.006  0.00  0.00    -0.250 N 
HETATM   15  N   ZIN N   1      26.166 -20.832 -27.418  0.00  0.00    -0.283 N 
HETATM   16  H   ZIN N   1      25.659 -22.870 -27.539  0.00  0.00     0.192 HD
ATOM     17  HN  ZIN N   1      25.952 -20.608 -26.446  1.00  0.00     0.188 HD
ENDBRANCH   8   9
ENDBRANCH   1   8
BRANCH   5  18
HETATM   18  C   ZIN N   1      29.659 -16.446 -31.677  0.00  0.00     0.017 A 
HETATM   19  C   ZIN N   1      30.083 -17.059 -32.892  0.00  0.00     0.023 A 
HETATM   20  C   ZIN N   1      31.157 -16.411 -33.504  0.00  0.00     0.050 A 
HETATM   21  S   ZIN N   1      31.541 -15.122 -32.535  0.00  0.00    -0.113 SA
HETATM   22  C   ZIN N   1      30.406 -15.313 -31.336  0.00  0.00     0.065 A 
ENDBRANCH   5  18
TORSDOF 3
ENDMDL
MODEL 9
REMARK VINA RESULT:      -7.8      6.073      7.491
REMARK  3 active torsions:
REMARK  status: ('A' for Active; 'I' for Inactive)
REMARK    1  A    between atoms: C_4  and  C_5 
REMARK    2  A    between atoms: C_5  and  N_6 
REMARK    3  A    between atoms: C_10  and  C_11 
ROOT
HETATM    1  N   ZIN N   1      28.534 -17.154 -31.134  0.00  0.00    -0.209 N 
HETATM    2  N   ZIN N   1      27.262 -16.794 -31.165  0.00  0.00    -0.002 NA
HETATM    3  N   ZIN N   1      26.594 -17.500 -30.268  0.00  0.00    -0.266 N 
ATOM      4  HN  ZIN N   1      25.596 -17.447 -30.061  1.00  0.00     0.186 HD
HETATM    5  C   ZIN N   1      27.504 -18.305 -29.685  0.00  0.00     0.145 A 
HETATM    6  N   ZIN N   1      28.724 -18.095 -30.220  0.00  0.00    -0.268 N 
ATOM      7  HN  ZIN N   1      29.601 -18.556 -29.975  1.00  0.00     0.190 HD
ENDROOT
BRANCH   1   8
HETATM    8  C   ZIN N   1      29.571 -16.579 -31.990  0.00  0.00     0.245 C 
BRANCH   8   9
HETATM    9  C   ZIN N   1      30.589 -15.821 -31.185  0.00  0.00     0.121 A 
HETATM   10  N   ZIN N   1      31.751 -15.348 -31.694  0.00  0.00    -0.294 N 
HETATM   11  C   ZIN N   1      32.320 -14.746 -30.621  0.00  0.00     0.340 A 
HETATM   12  H   ZIN N   1      32.095 -15.423 -32.614  0.00  0.00     0.172 HD
HETATM   13  O   ZIN N   1      33.397 -14.177 -30.645  0.00  0.00    -0.245 OA
HETATM   14  N   ZIN N   1      31.544 -14.852 -29.522  0.00  0.00    -0.250 N 
HETATM   15  N   ZIN N   1      30.460 -15.524 -29.871  0.00  0.00    -0.283 N 
HETATM   16  H   ZIN N   1      31.736 -14.482 -28.565  0.00  0.00     0.192 HD
ATOM     17  HN  ZIN N   1      29.676 -15.771 -29.266  1.00  0.00     0.188 HD
ENDBRANCH   8   9
ENDBRANCH   1   8
BRANCH   5  18
HETATM   18  C   ZIN N   1      27.181 -19.275 -28.622  0.00  0.00     0.017 A 
HETATM   19  C   ZIN N   1      26.535 -18.894 -27.409  0.00  0.00     0.023 A 
HETATM   20  C   ZIN N   1      26.314 -19.956 -26.532  0.00  0.00     0.050 A 
HETATM   21  S   ZIN N   1      26.918 -21.311 -27.273  0.00  0.00    -0.113 SA
HETATM   22  C   ZIN N   1      27.467 -20.643 -28.692  0.00  0.00     0.065 A 
ENDBRANCH   5  18
TORSDOF 3
ENDMDL
