MODEL 1
REMARK VINA RESULT:      -9.6      0.000      0.000
REMARK  4 active torsions:
REMARK  status: ('A' for Active; 'I' for Inactive)
REMARK    1  A    between atoms: N_1  and  C_2 
REMARK    2  A    between atoms: C_8  and  C_9 
REMARK    3  A    between atoms: C_14  and  C_15 
REMARK    4  A    between atoms: C_21  and  N_22 
ROOT
HETATM    1  C   ZIN N   1      26.310 -21.530 -28.729  0.00  0.00     0.154 A 
HETATM    2  N   ZIN N   1      26.184 -22.776 -28.244  0.00  0.00    -0.282 N 
ATOM      3  HN  ZIN N   1      26.234 -23.053 -27.264  1.00  0.00     0.188 HD
HETATM    4  N   ZIN N   1      25.987 -23.575 -29.273  0.00  0.00    -0.282 N 
ATOM      5  HN  ZIN N   1      25.853 -24.586 -29.238  1.00  0.00     0.188 HD
HETATM    6  C   ZIN N   1      25.992 -22.810 -30.377  0.00  0.00     0.154 A 
HETATM    7  N   ZIN N   1      26.194 -21.510 -30.074  0.00  0.00    -0.322 N 
HETATM    8  H   ZIN N   1      26.245 -20.738 -30.683  0.00  0.00     0.169 HD
ENDROOT
BRANCH   1   9
HETATM    9  C   ZIN N   1      26.543 -20.348 -27.884  0.00  0.00     0.147 A 
HETATM   10  C   ZIN N   1      25.753 -19.230 -27.737  0.00  0.00     0.154 A 
HETATM   11  N   ZIN N   1      26.358 -18.410 -26.866  0.00  0.00    -0.224 N 
HETATM   12  O   ZIN N   1      27.459 -19.015 -26.511  0.00  0.00    -0.155 OA
ATOM     13  HN  ZIN N   1      26.026 -17.500 -26.545  1.00  0.00     0.198 HD
HETATM   14  N   ZIN N   1      27.616 -20.175 -27.091  0.00  0.00    -0.234 N 
ATOM     15  HN  ZIN N   1      28.396 -20.821 -26.969  1.00  0.00     0.197 HD
BRANCH  10  16
HETATM   16  N   ZIN N   1      24.516 -18.943 -28.366  0.00  0.00    -0.382 N 
HETATM   17  H   ZIN N   1      23.668 -19.486 -28.158  0.00  0.00     0.157 HD
HETATM   18  H   ZIN N   1      24.453 -18.176 -29.049  0.00  0.00     0.157 HD
ENDBRANCH  10  16
ENDBRANCH   1   9
BRANCH   6  19
HETATM   19  C   ZIN N   1      25.801 -23.340 -31.735  0.00  0.00     0.147 A 
HETATM   20  C   ZIN N   1      26.525 -24.313 -32.385  0.00  0.00     0.154 A 
HETATM   21  N   ZIN N   1      25.995 -24.475 -33.607  0.00  0.00    -0.224 N 
HETATM   22  O   ZIN N   1      24.999 -23.634 -33.679  0.00  0.00    -0.155 OA
ATOM     23  HN  ZIN N   1      26.306 -25.122 -34.331  1.00  0.00     0.198 HD
HETATM   24  N   ZIN N   1      24.842 -22.933 -32.586  0.00  0.00    -0.234 N 
ATOM     25  HN  ZIN N   1      24.133 -22.220 -32.413  1.00  0.00     0.197 HD
BRANCH  20  26
HETATM   26  N   ZIN N   1      27.638 -25.046 -31.904  0.00  0.00    -0.382 N 
HETATM   27  H   ZIN N   1      28.447 -24.550 -31.504  0.00  0.00     0.157 HD
HETATM   28  H   ZIN N   1      27.662 -26.073 -31.943  0.00  0.00     0.157 HD
ENDBRANCH  20  26
ENDBRANCH   6  19
TORSDOF 4
ENDMDL
MODEL 2
REMARK VINA RESULT:      -9.6      1.652      6.278
REMARK  4 active torsions:
REMARK  status: ('A' for Active; 'I' for Inactive)
REMARK    1  A    between atoms: N_1  and  C_2 
REMARK    2  A    between atoms: C_8  and  C_9 
REMARK    3  A    between atoms: C_14  and  C_15 
REMARK    4  A    between atoms: C_21  and  N_22 
ROOT
HETATM    1  C   ZIN N   1      26.956 -22.379 -29.726  0.00  0.00     0.154 A 
HETATM    2  N   ZIN N   1      28.164 -21.886 -29.408  0.00  0.00    -0.282 N 
ATOM      3  HN  ZIN N   1      29.031 -22.026 -29.926  1.00  0.00     0.188 HD
HETATM    4  N   ZIN N   1      28.020 -21.189 -28.299  0.00  0.00    -0.282 N 
ATOM      5  HN  ZIN N   1      28.754 -20.687 -27.799  1.00  0.00     0.188 HD
HETATM    6  C   ZIN N   1      26.724 -21.260 -27.951  0.00  0.00     0.154 A 
HETATM    7  N   ZIN N   1      26.019 -22.004 -28.829  0.00  0.00    -0.322 N 
HETATM    8  H   ZIN N   1      25.058 -22.222 -28.817  0.00  0.00     0.169 HD
ENDROOT
BRANCH   1   9
HETATM    9  C   ZIN N   1      26.705 -23.217 -30.908  0.00  0.00     0.147 A 
HETATM   10  C   ZIN N   1      25.626 -23.191 -31.764  0.00  0.00     0.154 A 
HETATM   11  N   ZIN N   1      25.820 -24.132 -32.699  0.00  0.00    -0.224 N 
HETATM   12  O   ZIN N   1      26.964 -24.692 -32.411  0.00  0.00    -0.155 OA
ATOM     13  HN  ZIN N   1      25.202 -24.364 -33.477  1.00  0.00     0.198 HD
HETATM   14  N   ZIN N   1      27.532 -24.181 -31.350  0.00  0.00    -0.234 N 
ATOM     15  HN  ZIN N   1      28.423 -24.459 -30.939  1.00  0.00     0.197 HD
BRANCH  10  16
HETATM   16  N   ZIN N   1      24.490 -22.347 -31.716  0.00  0.00    -0.382 N 
HETATM   17  H   ZIN N   1      23.796 -22.335 -32.474  0.00  0.00     0.157 HD
HETATM   18  H   ZIN N   1      24.347 -21.725 -30.908  0.00  0.00     0.157 HD
ENDBRANCH  10  16
ENDBRANCH   1   9
BRANCH   6  19
HETATM   19  C   ZIN N   1      26.165 -20.604 -26.759  0.00  0.00     0.147 A 
HETATM   20  C   ZIN N   1      26.288 -19.290 -26.367  0.00  0.00     0.154 A 
HETATM   21  N   ZIN N   1      25.613 -19.138 -25.218  0.00  0.00    -0.224 N 
HETATM   22  O   ZIN N   1      25.111 -20.311 -24.940  0.00  0.00    -0.155 OA
ATOM     23  HN  ZIN N   1      25.512 -18.282 -24.673  1.00  0.00     0.198 HD
HETATM   24  N   ZIN N   1      25.412 -21.219 -25.831  0.00  0.00    -0.234 N 
ATOM     25  HN  ZIN N   1      25.132 -22.201 -25.823  1.00  0.00     0.197 HD
BRANCH  20  26
HETATM   26  N   ZIN N   1      26.988 -18.243 -27.017  0.00  0.00    -0.382 N 
HETATM   27  H   ZIN N   1      26.511 -17.352 -27.215  0.00  0.00     0.157 HD
HETATM   28  H   ZIN N   1      27.969 -18.349 -27.302  0.00  0.00     0.157 HD
ENDBRANCH  20  26
ENDBRANCH   6  19
TORSDOF 4
ENDMDL
MODEL 3
REMARK VINA RESULT:      -9.3      4.097      6.538
REMARK  4 active torsions:
REMARK  status: ('A' for Active; 'I' for Inactive)
REMARK    1  A    between atoms: N_1  and  C_2 
REMARK    2  A    between atoms: C_8  and  C_9 
REMARK    3  A    between atoms: C_14  and  C_15 
REMARK    4  A    between atoms: C_21  and  N_22 
ROOT
HETATM    1  C   ZIN N   1      26.185 -20.019 -27.599  0.00  0.00     0.154 A 
HETATM    2  N   ZIN N   1      25.717 -21.250 -27.863  0.00  0.00    -0.282 N 
ATOM      3  HN  ZIN N   1      25.629 -21.681 -28.784  1.00  0.00     0.188 HD
HETATM    4  N   ZIN N   1      25.390 -21.797 -26.710  0.00  0.00    -0.282 N 
ATOM      5  HN  ZIN N   1      25.003 -22.731 -26.571  1.00  0.00     0.188 HD
HETATM    6  C   ZIN N   1      25.662 -20.897 -25.752  0.00  0.00     0.154 A 
HETATM    7  N   ZIN N   1      26.167 -19.759 -26.275  0.00  0.00    -0.322 N 
HETATM    8  H   ZIN N   1      26.450 -18.940 -25.805  0.00  0.00     0.169 HD
ENDROOT
BRANCH   1   9
HETATM    9  C   ZIN N   1      26.654 -19.088 -28.636  0.00  0.00     0.147 A 
HETATM   10  C   ZIN N   1      25.915 -18.423 -29.589  0.00  0.00     0.154 A 
HETATM   11  N   ZIN N   1      26.759 -17.682 -30.321  0.00  0.00    -0.224 N 
HETATM   12  O   ZIN N   1      27.948 -17.897 -29.825  0.00  0.00    -0.155 OA
ATOM     13  HN  ZIN N   1      26.523 -17.074 -31.106  1.00  0.00     0.198 HD
HETATM   14  N   ZIN N   1      27.938 -18.730 -28.817  0.00  0.00    -0.234 N 
ATOM     15  HN  ZIN N   1      28.743 -19.045 -28.276  1.00  0.00     0.197 HD
BRANCH  10  16
HETATM   16  N   ZIN N   1      24.516 -18.473 -29.805  0.00  0.00    -0.382 N 
HETATM   17  H   ZIN N   1      24.078 -19.249 -30.317  0.00  0.00     0.157 HD
HETATM   18  H   ZIN N   1      23.914 -17.719 -29.446  0.00  0.00     0.157 HD
ENDBRANCH  10  16
ENDBRANCH   1   9
BRANCH   6  19
HETATM   19  C   ZIN N   1      25.433 -21.138 -24.319  0.00  0.00     0.147 A 
HETATM   20  C   ZIN N   1      24.642 -20.427 -23.446  0.00  0.00     0.154 A 
HETATM   21  N   ZIN N   1      24.734 -21.007 -22.240  0.00  0.00    -0.224 N 
HETATM   22  O   ZIN N   1      25.545 -22.019 -22.391  0.00  0.00    -0.155 OA
ATOM     23  HN  ZIN N   1      24.267 -20.717 -21.381  1.00  0.00     0.198 HD
HETATM   24  N   ZIN N   1      25.989 -22.139 -23.614  0.00  0.00    -0.234 N 
ATOM     25  HN  ZIN N   1      26.630 -22.852 -23.966  1.00  0.00     0.197 HD
BRANCH  20  26
HETATM   26  N   ZIN N   1      23.851 -19.282 -23.714  0.00  0.00    -0.382 N 
HETATM   27  H   ZIN N   1      23.365 -18.802 -22.944  0.00  0.00     0.157 HD
HETATM   28  H   ZIN N   1      23.746 -18.913 -24.667  0.00  0.00     0.157 HD
ENDBRANCH  20  26
ENDBRANCH   6  19
TORSDOF 4
ENDMDL
MODEL 4
REMARK VINA RESULT:      -9.2      4.262      5.646
REMARK  4 active torsions:
REMARK  status: ('A' for Active; 'I' for Inactive)
REMARK    1  A    between atoms: N_1  and  C_2 
REMARK    2  A    between atoms: C_8  and  C_9 
REMARK    3  A    between atoms: C_14  and  C_15 
REMARK    4  A    between atoms: C_21  and  N_22 
ROOT
HETATM    1  C   ZIN N   1      27.317 -18.233 -28.750  0.00  0.00     0.154 A 
HETATM    2  N   ZIN N   1      27.384 -17.508 -27.621  0.00  0.00    -0.282 N 
ATOM      3  HN  ZIN N   1      27.719 -16.549 -27.537  1.00  0.00     0.188 HD
HETATM    4  N   ZIN N   1      26.937 -18.269 -26.644  0.00  0.00    -0.282 N 
ATOM      5  HN  ZIN N   1      26.860 -18.009 -25.660  1.00  0.00     0.188 HD
HETATM    6  C   ZIN N   1      26.599 -19.452 -27.183  0.00  0.00     0.154 A 
HETATM    7  N   ZIN N   1      26.825 -19.468 -28.514  0.00  0.00    -0.322 N 
HETATM    8  H   ZIN N   1      26.670 -20.200 -29.154  0.00  0.00     0.169 HD
ENDROOT
BRANCH   1   9
HETATM    9  C   ZIN N   1      27.730 -17.727 -30.068  0.00  0.00     0.147 A 
HETATM   10  C   ZIN N   1      26.964 -17.097 -31.023  0.00  0.00     0.154 A 
HETATM   11  N   ZIN N   1      27.757 -16.813 -32.065  0.00  0.00    -0.224 N 
HETATM   12  O   ZIN N   1      28.943 -17.254 -31.743  0.00  0.00    -0.155 OA
ATOM     13  HN  ZIN N   1      27.491 -16.346 -32.933  1.00  0.00     0.198 HD
HETATM   14  N   ZIN N   1      28.979 -17.809 -30.560  0.00  0.00    -0.234 N 
ATOM     15  HN  ZIN N   1      29.791 -18.222 -30.102  1.00  0.00     0.197 HD
BRANCH  10  16
HETATM   16  N   ZIN N   1      25.584 -16.780 -30.970  0.00  0.00    -0.382 N 
HETATM   17  H   ZIN N   1      25.189 -16.004 -31.516  0.00  0.00     0.157 HD
HETATM   18  H   ZIN N   1      24.953 -17.332 -30.373  0.00  0.00     0.157 HD
ENDBRANCH  10  16
ENDBRANCH   1   9
BRANCH   6  19
HETATM   19  C   ZIN N   1      26.054 -20.575 -26.405  0.00  0.00     0.147 A 
HETATM   20  C   ZIN N   1      26.448 -21.894 -26.413  0.00  0.00     0.154 A 
HETATM   21  N   ZIN N   1      25.671 -22.562 -25.547  0.00  0.00    -0.224 N 
HETATM   22  O   ZIN N   1      24.851 -21.677 -25.048  0.00  0.00    -0.155 OA
ATOM     23  HN  ZIN N   1      25.712 -23.556 -25.325  1.00  0.00     0.198 HD
HETATM   24  N   ZIN N   1      25.040 -20.476 -25.528  0.00  0.00    -0.234 N 
ATOM     25  HN  ZIN N   1      24.521 -19.631 -25.286  1.00  0.00     0.197 HD
BRANCH  20  26
HETATM   26  N   ZIN N   1      27.480 -22.496 -27.175  0.00  0.00    -0.382 N 
HETATM   27  H   ZIN N   1      28.283 -21.933 -27.489  0.00  0.00     0.157 HD
HETATM   28  H   ZIN N   1      27.449 -23.492 -27.428  0.00  0.00     0.157 HD
ENDBRANCH  20  26
ENDBRANCH   6  19
TORSDOF 4
ENDMDL
MODEL 5
REMARK VINA RESULT:      -9.1      4.718      5.976
REMARK  4 active torsions:
REMARK  status: ('A' for Active; 'I' for Inactive)
REMARK    1  A    between atoms: N_1  and  C_2 
REMARK    2  A    between atoms: C_8  and  C_9 
REMARK    3  A    between atoms: C_14  and  C_15 
REMARK    4  A    between atoms: C_21  and  N_22 
ROOT
HETATM    1  C   ZIN N   1      27.322 -18.216 -29.143  0.00  0.00     0.154 A 
HETATM    2  N   ZIN N   1      28.437 -18.867 -29.516  0.00  0.00    -0.282 N 
ATOM      3  HN  ZIN N   1      28.875 -19.648 -29.027  1.00  0.00     0.188 HD
HETATM    4  N   ZIN N   1      28.860 -18.306 -30.630  0.00  0.00    -0.282 N 
ATOM      5  HN  ZIN N   1      29.687 -18.572 -31.167  1.00  0.00     0.188 HD
HETATM    6  C   ZIN N   1      28.001 -17.319 -30.930  0.00  0.00     0.154 A 
HETATM    7  N   ZIN N   1      27.014 -17.230 -30.013  0.00  0.00    -0.322 N 
HETATM    8  H   ZIN N   1      26.256 -16.601 -29.984  0.00  0.00     0.169 HD
ENDROOT
BRANCH   1   9
HETATM    9  C   ZIN N   1      26.549 -18.551 -27.938  0.00  0.00     0.147 A 
HETATM   10  C   ZIN N   1      25.216 -18.885 -27.840  0.00  0.00     0.154 A 
HETATM   11  N   ZIN N   1      24.943 -19.109 -26.547  0.00  0.00    -0.224 N 
HETATM   12  O   ZIN N   1      26.064 -18.918 -25.905  0.00  0.00    -0.155 OA
ATOM     13  HN  ZIN N   1      24.043 -19.376 -26.145  1.00  0.00     0.198 HD
HETATM   14  N   ZIN N   1      27.053 -18.583 -26.691  0.00  0.00    -0.234 N 
ATOM     15  HN  ZIN N   1      28.014 -18.385 -26.415  1.00  0.00     0.197 HD
BRANCH  10  16
HETATM   16  N   ZIN N   1      24.260 -18.987 -28.880  0.00  0.00    -0.382 N 
HETATM   17  H   ZIN N   1      23.313 -19.346 -28.706  0.00  0.00     0.157 HD
HETATM   18  H   ZIN N   1      24.510 -18.700 -29.836  0.00  0.00     0.157 HD
ENDBRANCH  10  16
ENDBRANCH   1   9
BRANCH   6  19
HETATM   19  C   ZIN N   1      28.134 -16.454 -32.112  0.00  0.00     0.147 A 
HETATM   20  C   ZIN N   1      28.906 -15.324 -32.264  0.00  0.00     0.154 A 
HETATM   21  N   ZIN N   1      28.717 -14.860 -33.509  0.00  0.00    -0.224 N 
HETATM   22  O   ZIN N   1      27.869 -15.679 -34.070  0.00  0.00    -0.155 OA
ATOM     23  HN  ZIN N   1      29.146 -14.037 -33.930  1.00  0.00     0.198 HD
HETATM   24  N   ZIN N   1      27.492 -16.647 -33.277  0.00  0.00    -0.234 N 
ATOM     25  HN  ZIN N   1      26.839 -17.401 -33.498  1.00  0.00     0.197 HD
BRANCH  20  26
HETATM   26  N   ZIN N   1      29.764 -14.714 -31.316  0.00  0.00    -0.382 N 
HETATM   27  H   ZIN N   1      29.456 -13.871 -30.811  0.00  0.00     0.157 HD
HETATM   28  H   ZIN N   1      30.698 -15.093 -31.115  0.00  0.00     0.157 HD
ENDBRANCH  20  26
ENDBRANCH   6  19
TORSDOF 4
ENDMDL
MODEL 6
REMARK VINA RESULT:      -9.1      4.716      6.886
REMARK  4 active torsions:
REMARK  status: ('A' for Active; 'I' for Inactive)
REMARK    1  A    between atoms: N_1  and  C_2 
REMARK    2  A    between atoms: C_8  and  C_9 
REMARK    3  A    between atoms: C_14  and  C_15 
REMARK    4  A    between atoms: C_21  and  N_22 
ROOT
HETATM    1  C   ZIN N   1      28.099 -17.436 -30.813  0.00  0.00     0.154 A 
HETATM    2  N   ZIN N   1      28.896 -18.473 -30.502  0.00  0.00    -0.282 N 
ATOM      3  HN  ZIN N   1      29.714 -18.785 -31.024  1.00  0.00     0.188 HD
HETATM    4  N   ZIN N   1      28.420 -19.011 -29.398  0.00  0.00    -0.282 N 
ATOM      5  HN  ZIN N   1      28.802 -19.818 -28.904  1.00  0.00     0.188 HD
HETATM    6  C   ZIN N   1      27.338 -18.299 -29.042  0.00  0.00     0.154 A 
HETATM    7  N   ZIN N   1      27.103 -17.293 -29.913  0.00  0.00    -0.322 N 
HETATM    8  H   ZIN N   1      26.382 -16.622 -29.895  0.00  0.00     0.169 HD
ENDROOT
BRANCH   1   9
HETATM    9  C   ZIN N   1      28.304 -16.576 -31.988  0.00  0.00     0.147 A 
HETATM   10  C   ZIN N   1      29.107 -15.463 -32.106  0.00  0.00     0.154 A 
HETATM   11  N   ZIN N   1      28.983 -14.997 -33.357  0.00  0.00    -0.224 N 
HETATM   12  O   ZIN N   1      28.142 -15.798 -33.955  0.00  0.00    -0.155 OA
ATOM     13  HN  ZIN N   1      29.448 -14.184 -33.760  1.00  0.00     0.198 HD
HETATM   14  N   ZIN N   1      27.709 -16.757 -33.180  0.00  0.00    -0.234 N 
ATOM     15  HN  ZIN N   1      27.050 -17.494 -33.429  1.00  0.00     0.197 HD
BRANCH  10  16
HETATM   16  N   ZIN N   1      29.937 -14.873 -31.121  0.00  0.00    -0.382 N 
HETATM   17  H   ZIN N   1      30.083 -13.856 -31.080  0.00  0.00     0.157 HD
HETATM   18  H   ZIN N   1      30.409 -15.466 -30.425  0.00  0.00     0.157 HD
ENDBRANCH  10  16
ENDBRANCH   1   9
BRANCH   6  19
HETATM   19  C   ZIN N   1      26.526 -18.592 -27.852  0.00  0.00     0.147 A 
HETATM   20  C   ZIN N   1      25.181 -18.877 -27.781  0.00  0.00     0.154 A 
HETATM   21  N   ZIN N   1      24.869 -19.078 -26.492  0.00  0.00    -0.224 N 
HETATM   22  O   ZIN N   1      25.982 -18.919 -25.827  0.00  0.00    -0.155 OA
ATOM     23  HN  ZIN N   1      23.953 -19.307 -26.110  1.00  0.00     0.198 HD
HETATM   24  N   ZIN N   1      26.999 -18.628 -26.594  0.00  0.00    -0.234 N 
ATOM     25  HN  ZIN N   1      27.962 -18.462 -26.297  1.00  0.00     0.197 HD
BRANCH  20  26
HETATM   26  N   ZIN N   1      24.245 -18.957 -28.842  0.00  0.00    -0.382 N 
HETATM   27  H   ZIN N   1      23.976 -19.875 -29.222  0.00  0.00     0.157 HD
HETATM   28  H   ZIN N   1      23.822 -18.113 -29.249  0.00  0.00     0.157 HD
ENDBRANCH  20  26
ENDBRANCH   6  19
TORSDOF 4
ENDMDL
MODEL 7
REMARK VINA RESULT:      -9.0      4.512      6.441
REMARK  4 active torsions:
REMARK  status: ('A' for Active; 'I' for Inactive)
REMARK    1  A    between atoms: N_1  and  C_2 
REMARK    2  A    between atoms: C_8  and  C_9 
REMARK    3  A    between atoms: C_14  and  C_15 
REMARK    4  A    between atoms: C_21  and  N_22 
ROOT
HETATM    1  C   ZIN N   1      28.183 -17.408 -30.783  0.00  0.00     0.154 A 
HETATM    2  N   ZIN N   1      26.843 -17.328 -30.716  0.00  0.00    -0.282 N 
ATOM      3  HN  ZIN N   1      26.247 -16.691 -31.244  1.00  0.00     0.188 HD
HETATM    4  N   ZIN N   1      26.444 -18.226 -29.839  0.00  0.00    -0.282 N 
ATOM      5  HN  ZIN N   1      25.480 -18.415 -29.562  1.00  0.00     0.188 HD
HETATM    6  C   ZIN N   1      27.542 -18.848 -29.378  0.00  0.00     0.154 A 
HETATM    7  N   ZIN N   1      28.662 -18.358 -29.951  0.00  0.00    -0.322 N 
HETATM    8  H   ZIN N   1      29.597 -18.627 -29.800  0.00  0.00     0.169 HD
ENDROOT
BRANCH   1   9
HETATM    9  C   ZIN N   1      29.006 -16.559 -31.658  0.00  0.00     0.147 A 
HETATM   10  C   ZIN N   1      29.084 -16.568 -33.033  0.00  0.00     0.154 A 
HETATM   11  N   ZIN N   1      29.962 -15.624 -33.401  0.00  0.00    -0.224 N 
HETATM   12  O   ZIN N   1      30.386 -15.079 -32.293  0.00  0.00    -0.155 OA
ATOM     13  HN  ZIN N   1      30.242 -15.381 -34.352  1.00  0.00     0.198 HD
HETATM   14  N   ZIN N   1      29.845 -15.602 -31.225  0.00  0.00    -0.234 N 
ATOM     15  HN  ZIN N   1      30.024 -15.339 -30.256  1.00  0.00     0.197 HD
BRANCH  10  16
HETATM   16  N   ZIN N   1      28.388 -17.400 -33.945  0.00  0.00    -0.382 N 
HETATM   17  H   ZIN N   1      27.372 -17.319 -34.078  0.00  0.00     0.157 HD
HETATM   18  H   ZIN N   1      28.901 -18.104 -34.491  0.00  0.00     0.157 HD
ENDBRANCH  10  16
ENDBRANCH   1   9
BRANCH   6  19
HETATM   19  C   ZIN N   1      27.508 -19.924 -28.376  0.00  0.00     0.147 A 
HETATM   20  C   ZIN N   1      27.193 -19.839 -27.038  0.00  0.00     0.154 A 
HETATM   21  N   ZIN N   1      27.293 -21.069 -26.513  0.00  0.00    -0.224 N 
HETATM   22  O   ZIN N   1      27.651 -21.850 -27.497  0.00  0.00    -0.155 OA
ATOM     23  HN  ZIN N   1      27.124 -21.340 -25.545  1.00  0.00     0.198 HD
HETATM   24  N   ZIN N   1      27.793 -21.213 -28.629  0.00  0.00    -0.234 N 
ATOM     25  HN  ZIN N   1      28.065 -21.615 -29.527  1.00  0.00     0.197 HD
BRANCH  20  26
HETATM   26  N   ZIN N   1      26.823 -18.690 -26.296  0.00  0.00    -0.382 N 
HETATM   27  H   ZIN N   1      25.929 -18.673 -25.786  0.00  0.00     0.157 HD
HETATM   28  H   ZIN N   1      27.430 -17.862 -26.251  0.00  0.00     0.157 HD
ENDBRANCH  20  26
ENDBRANCH   6  19
TORSDOF 4
ENDMDL
MODEL 8
REMARK VINA RESULT:      -9.0      4.523      6.071
REMARK  4 active torsions:
REMARK  status: ('A' for Active; 'I' for Inactive)
REMARK    1  A    between atoms: N_1  and  C_2 
REMARK    2  A    between atoms: C_8  and  C_9 
REMARK    3  A    between atoms: C_14  and  C_15 
REMARK    4  A    between atoms: C_21  and  N_22 
ROOT
HETATM    1  C   ZIN N   1      27.541 -18.830 -29.391  0.00  0.00     0.154 A 
HETATM    2  N   ZIN N   1      26.441 -18.208 -29.849  0.00  0.00    -0.282 N 
ATOM      3  HN  ZIN N   1      25.478 -18.397 -29.572  1.00  0.00     0.188 HD
HETATM    4  N   ZIN N   1      26.840 -17.309 -30.725  0.00  0.00    -0.282 N 
ATOM      5  HN  ZIN N   1      26.244 -16.670 -31.252  1.00  0.00     0.188 HD
HETATM    6  C   ZIN N   1      28.179 -17.387 -30.795  0.00  0.00     0.154 A 
HETATM    7  N   ZIN N   1      28.660 -18.339 -29.965  0.00  0.00    -0.322 N 
HETATM    8  H   ZIN N   1      29.595 -18.608 -29.817  0.00  0.00     0.169 HD
ENDROOT
BRANCH   1   9
HETATM    9  C   ZIN N   1      27.509 -19.907 -28.390  0.00  0.00     0.147 A 
HETATM   10  C   ZIN N   1      27.187 -19.825 -27.053  0.00  0.00     0.154 A 
HETATM   11  N   ZIN N   1      27.293 -21.054 -26.529  0.00  0.00    -0.224 N 
HETATM   12  O   ZIN N   1      27.661 -21.832 -27.511  0.00  0.00    -0.155 OA
ATOM     13  HN  ZIN N   1      27.121 -21.327 -25.561  1.00  0.00     0.198 HD
HETATM   14  N   ZIN N   1      27.803 -21.194 -28.643  0.00  0.00    -0.234 N 
ATOM     15  HN  ZIN N   1      28.082 -21.593 -29.540  1.00  0.00     0.197 HD
BRANCH  10  16
HETATM   16  N   ZIN N   1      26.807 -18.679 -26.313  0.00  0.00    -0.382 N 
HETATM   17  H   ZIN N   1      27.495 -17.971 -26.025  0.00  0.00     0.157 HD
HETATM   18  H   ZIN N   1      25.821 -18.542 -26.049  0.00  0.00     0.157 HD
ENDBRANCH  10  16
ENDBRANCH   1   9
BRANCH   6  19
HETATM   19  C   ZIN N   1      29.001 -16.537 -31.670  0.00  0.00     0.147 A 
HETATM   20  C   ZIN N   1      29.090 -16.554 -33.043  0.00  0.00     0.154 A 
HETATM   21  N   ZIN N   1      29.961 -15.603 -33.412  0.00  0.00    -0.224 N 
HETATM   22  O   ZIN N   1      30.372 -15.046 -32.304  0.00  0.00    -0.155 OA
ATOM     23  HN  ZIN N   1      30.245 -15.364 -34.361  1.00  0.00     0.198 HD
HETATM   24  N   ZIN N   1      29.827 -15.569 -31.237  0.00  0.00    -0.234 N 
ATOM     25  HN  ZIN N   1      29.995 -15.296 -30.268  1.00  0.00     0.197 HD
BRANCH  20  26
HETATM   26  N   ZIN N   1      28.409 -17.399 -33.956  0.00  0.00    -0.382 N 
HETATM   27  H   ZIN N   1      27.845 -16.989 -34.713  0.00  0.00     0.157 HD
HETATM   28  H   ZIN N   1      28.463 -18.422 -33.881  0.00  0.00     0.157 HD
ENDBRANCH  20  26
ENDBRANCH   6  19
TORSDOF 4
ENDMDL
MODEL 9
REMARK VINA RESULT:      -9.0      4.958      6.430
REMARK  4 active torsions:
REMARK  status: ('A' for Active; 'I' for Inactive)
REMARK    1  A    between atoms: N_1  and  C_2 
REMARK    2  A    between atoms: C_8  and  C_9 
REMARK    3  A    between atoms: C_14  and  C_15 
REMARK    4  A    between atoms: C_21  and  N_22 
ROOT
HETATM    1  C   ZIN N   1      27.202 -17.916 -29.835  0.00  0.00     0.154 A 
HETATM    2  N   ZIN N   1      26.387 -17.308 -30.713  0.00  0.00    -0.282 N 
ATOM      3  HN  ZIN N   1      25.370 -17.254 -30.658  1.00  0.00     0.188 HD
HETATM    4  N   ZIN N   1      27.148 -16.797 -31.659  0.00  0.00    -0.282 N 
ATOM      5  HN  ZIN N   1      26.830 -16.271 -32.474  1.00  0.00     0.188 HD
HETATM    6  C   ZIN N   1      28.421 -17.095 -31.351  0.00  0.00     0.154 A 
HETATM    7  N   ZIN N   1      28.496 -17.803 -30.204  0.00  0.00    -0.322 N 
HETATM    8  H   ZIN N   1      29.297 -18.151 -29.749  0.00  0.00     0.169 HD
ENDROOT
BRANCH   1   9
HETATM    9  C   ZIN N   1      26.726 -18.612 -28.630  0.00  0.00     0.147 A 
HETATM   10  C   ZIN N   1      25.978 -19.765 -28.544  0.00  0.00     0.154 A 
HETATM   11  N   ZIN N   1      25.778 -20.030 -27.246  0.00  0.00    -0.224 N 
HETATM   12  O   ZIN N   1      26.380 -19.076 -26.588  0.00  0.00    -0.155 OA
ATOM     13  HN  ZIN N   1      25.261 -20.816 -26.851  1.00  0.00     0.198 HD
HETATM   14  N   ZIN N   1      26.961 -18.204 -27.370  0.00  0.00    -0.234 N 
ATOM     15  HN  ZIN N   1      27.488 -17.380 -27.082  1.00  0.00     0.197 HD
BRANCH  10  16
HETATM   16  N   ZIN N   1      25.483 -20.568 -29.602  0.00  0.00    -0.382 N 
HETATM   17  H   ZIN N   1      24.474 -20.688 -29.758  0.00  0.00     0.157 HD
HETATM   18  H   ZIN N   1      26.139 -21.046 -30.233  0.00  0.00     0.157 HD
ENDBRANCH  10  16
ENDBRANCH   1   9
BRANCH   6  19
HETATM   19  C   ZIN N   1      29.573 -16.692 -32.172  0.00  0.00     0.147 A 
HETATM   20  C   ZIN N   1      30.195 -15.466 -32.233  0.00  0.00     0.154 A 
HETATM   21  N   ZIN N   1      31.200 -15.557 -33.116  0.00  0.00    -0.224 N 
HETATM   22  O   ZIN N   1      31.175 -16.785 -33.561  0.00  0.00    -0.155 OA
ATOM     23  HN  ZIN N   1      31.850 -14.819 -33.387  1.00  0.00     0.198 HD
HETATM   24  N   ZIN N   1      30.222 -17.502 -33.027  0.00  0.00    -0.234 N 
ATOM     25  HN  ZIN N   1      30.012 -18.482 -33.220  1.00  0.00     0.197 HD
BRANCH  20  26
HETATM   26  N   ZIN N   1      29.876 -14.284 -31.518  0.00  0.00    -0.382 N 
HETATM   27  H   ZIN N   1      30.614 -13.600 -31.302  0.00  0.00     0.157 HD
HETATM   28  H   ZIN N   1      28.918 -14.090 -31.203  0.00  0.00     0.157 HD
ENDBRANCH  20  26
ENDBRANCH   6  19
TORSDOF 4
ENDMDL
