MODEL 1
REMARK VINA RESULT:      -8.7      0.000      0.000
REMARK  0 active torsions:
REMARK  status: ('A' for Active; 'I' for Inactive)
REMARK       I    between atoms: C_9  and  N_10 
ROOT
HETATM    1  C   <0> N   1     -19.904 -54.499 -19.431  0.00  0.00     0.069 C 
HETATM    2  C   <0> N   1     -20.510 -53.169 -19.742  0.00  0.00     0.028 A 
HETATM    3  C   <0> N   1     -21.349 -53.025 -20.873  0.00  0.00     0.102 A 
HETATM    4  C   <0> N   1     -21.905 -51.767 -21.145  0.00  0.00     0.284 A 
HETATM    5  O   <0> N   1     -22.634 -51.596 -22.107  0.00  0.00    -0.266 OA
HETATM    6  N   <0> N   1     -21.606 -50.741 -20.298  0.00  0.00    -0.033 N 
HETATM    7  N   <0> N   1     -22.003 -49.483 -20.345  0.00  0.00    -0.107 N 
ATOM      8  HN  <0> N   1     -22.615 -49.053 -21.037  1.00  0.00     0.207 HD
HETATM    9  C   <0> N   1     -21.421 -48.885 -19.275  0.00  0.00     0.724 A 
HETATM   10  N   <0> N   1     -21.582 -47.507 -18.937  0.00  0.00    -0.081 N 
HETATM   11  C   <0> N   1     -22.323 -46.620 -19.613  0.00  0.00     0.246 A 
HETATM   12  O   <0> N   1     -22.959 -46.899 -20.620  0.00  0.00    -0.272 OA
HETATM   13  C   <0> N   1     -22.290 -45.250 -19.006  0.00  0.00     0.113 A 
HETATM   14  C   <0> N   1     -21.357 -45.455 -17.781  0.00  0.00     0.113 A 
HETATM   15  C   <0> N   1     -21.009 -46.907 -17.885  0.00  0.00     0.246 A 
HETATM   16  O   <0> N   1     -20.279 -47.487 -17.094  0.00  0.00    -0.272 OA
HETATM   17  N   <0> N   1     -20.662 -49.755 -18.556  0.00  0.00    -0.018 N 
HETATM   18  C   <0> N   1     -20.814 -50.898 -19.240  0.00  0.00     0.722 A 
HETATM   19  N   <0> N   1     -20.253 -52.093 -18.935  0.00  0.00    -0.193 N 
ATOM     20  HN  <0> N   1     -19.650 -52.190 -18.117  1.00  0.00     0.184 HD
HETATM   21  H   <0> N   1     -20.136 -49.588 -17.741  0.00  0.00     0.203 HD
ENDROOT
TORSDOF 0
ENDMDL
MODEL 2
REMARK VINA RESULT:      -8.6      1.473      2.764
REMARK  0 active torsions:
REMARK  status: ('A' for Active; 'I' for Inactive)
REMARK       I    between atoms: C_9  and  N_10 
ROOT
HETATM    1  C   <0> N   1     -22.535 -53.766 -23.092  0.00  0.00     0.069 C 
HETATM    2  C   <0> N   1     -22.053 -52.922 -21.956  0.00  0.00     0.028 A 
HETATM    3  C   <0> N   1     -21.179 -53.475 -20.991  0.00  0.00     0.102 A 
HETATM    4  C   <0> N   1     -20.741 -52.664 -19.934  0.00  0.00     0.284 A 
HETATM    5  O   <0> N   1     -19.986 -53.097 -19.080  0.00  0.00    -0.266 OA
HETATM    6  N   <0> N   1     -21.185 -51.376 -19.892  0.00  0.00    -0.033 N 
HETATM    7  N   <0> N   1     -20.917 -50.433 -19.009  0.00  0.00    -0.107 N 
ATOM      8  HN  <0> N   1     -20.318 -50.507 -18.187  1.00  0.00     0.207 HD
HETATM    9  C   <0> N   1     -21.609 -49.344 -19.427  0.00  0.00     0.724 A 
HETATM   10  N   <0> N   1     -21.607 -48.082 -18.758  0.00  0.00    -0.081 N 
HETATM   11  C   <0> N   1     -20.928 -47.795 -17.640  0.00  0.00     0.246 A 
HETATM   12  O   <0> N   1     -20.217 -48.600 -17.055  0.00  0.00    -0.272 OA
HETATM   13  C   <0> N   1     -21.131 -46.381 -17.183  0.00  0.00     0.113 A 
HETATM   14  C   <0> N   1     -22.098 -45.822 -18.262  0.00  0.00     0.113 A 
HETATM   15  C   <0> N   1     -22.289 -47.003 -19.161  0.00  0.00     0.246 A 
HETATM   16  O   <0> N   1     -22.995 -46.986 -20.159  0.00  0.00    -0.272 OA
HETATM   17  N   <0> N   1     -22.311 -49.593 -20.566  0.00  0.00    -0.018 N 
HETATM   18  C   <0> N   1     -22.009 -50.876 -20.811  0.00  0.00     0.722 A 
HETATM   19  N   <0> N   1     -22.459 -51.618 -21.851  0.00  0.00    -0.193 N 
ATOM     20  HN  <0> N   1     -23.089 -51.213 -22.544  1.00  0.00     0.184 HD
HETATM   21  H   <0> N   1     -22.891 -48.985 -21.079  0.00  0.00     0.203 HD
ENDROOT
TORSDOF 0
ENDMDL
MODEL 3
REMARK VINA RESULT:      -8.3      8.739     12.324
REMARK  0 active torsions:
REMARK  status: ('A' for Active; 'I' for Inactive)
REMARK       I    between atoms: C_9  and  N_10 
ROOT
HETATM    1  C   <0> N   1     -12.574 -37.616 -13.676  0.00  0.00     0.069 C 
HETATM    2  C   <0> N   1     -13.416 -38.850 -13.652  0.00  0.00     0.028 A 
HETATM    3  C   <0> N   1     -12.994 -39.976 -12.907  0.00  0.00     0.102 A 
HETATM    4  C   <0> N   1     -13.800 -41.122 -12.901  0.00  0.00     0.284 A 
HETATM    5  O   <0> N   1     -13.477 -42.115 -12.272  0.00  0.00    -0.266 OA
HETATM    6  N   <0> N   1     -14.958 -41.091 -13.620  0.00  0.00    -0.033 N 
HETATM    7  N   <0> N   1     -15.870 -42.033 -13.767  0.00  0.00    -0.107 N 
ATOM      8  HN  <0> N   1     -15.866 -42.967 -13.359  1.00  0.00     0.207 HD
HETATM    9  C   <0> N   1     -16.815 -41.493 -14.578  0.00  0.00     0.724 A 
HETATM   10  N   <0> N   1     -17.997 -42.174 -15.002  0.00  0.00    -0.081 N 
HETATM   11  C   <0> N   1     -18.341 -43.423 -14.663  0.00  0.00     0.246 A 
HETATM   12  O   <0> N   1     -17.665 -44.135 -13.934  0.00  0.00    -0.272 OA
HETATM   13  C   <0> N   1     -19.642 -43.853 -15.270  0.00  0.00     0.113 A 
HETATM   14  C   <0> N   1     -20.059 -42.596 -16.081  0.00  0.00     0.113 A 
HETATM   15  C   <0> N   1     -18.932 -41.650 -15.804  0.00  0.00     0.246 A 
HETATM   16  O   <0> N   1     -18.871 -40.519 -16.262  0.00  0.00    -0.272 OA
HETATM   17  N   <0> N   1     -16.506 -40.220 -14.942  0.00  0.00    -0.018 N 
HETATM   18  C   <0> N   1     -15.337 -40.021 -14.315  0.00  0.00     0.722 A 
HETATM   19  N   <0> N   1     -14.593 -38.889 -14.352  0.00  0.00    -0.193 N 
ATOM     20  HN  <0> N   1     -14.904 -38.080 -14.891  1.00  0.00     0.184 HD
HETATM   21  H   <0> N   1     -17.011 -39.602 -15.518  0.00  0.00     0.203 HD
ENDROOT
TORSDOF 0
ENDMDL
MODEL 4
REMARK VINA RESULT:      -8.3      2.430      6.893
REMARK  0 active torsions:
REMARK  status: ('A' for Active; 'I' for Inactive)
REMARK       I    between atoms: C_9  and  N_10 
ROOT
HETATM    1  C   <0> N   1     -22.709 -42.097 -15.948  0.00  0.00     0.069 C 
HETATM    2  C   <0> N   1     -22.023 -43.278 -16.554  0.00  0.00     0.028 A 
HETATM    3  C   <0> N   1     -20.613 -43.376 -16.502  0.00  0.00     0.102 A 
HETATM    4  C   <0> N   1     -19.992 -44.493 -17.078  0.00  0.00     0.284 A 
HETATM    5  O   <0> N   1     -18.780 -44.621 -17.056  0.00  0.00    -0.266 OA
HETATM    6  N   <0> N   1     -20.787 -45.434 -17.662  0.00  0.00    -0.033 N 
HETATM    7  N   <0> N   1     -20.441 -46.557 -18.263  0.00  0.00    -0.107 N 
ATOM      8  HN  <0> N   1     -19.499 -46.923 -18.395  1.00  0.00     0.207 HD
HETATM    9  C   <0> N   1     -21.608 -47.121 -18.666  0.00  0.00     0.724 A 
HETATM   10  N   <0> N   1     -21.703 -48.362 -19.365  0.00  0.00    -0.081 N 
HETATM   11  C   <0> N   1     -20.671 -49.140 -19.715  0.00  0.00     0.246 A 
HETATM   12  O   <0> N   1     -19.505 -48.868 -19.468  0.00  0.00    -0.272 OA
HETATM   13  C   <0> N   1     -21.097 -50.381 -20.441  0.00  0.00     0.113 A 
HETATM   14  C   <0> N   1     -22.641 -50.225 -20.481  0.00  0.00     0.113 A 
HETATM   15  C   <0> N   1     -22.849 -48.924 -19.771  0.00  0.00     0.246 A 
HETATM   16  O   <0> N   1     -23.948 -48.425 -19.580  0.00  0.00    -0.272 OA
HETATM   17  N   <0> N   1     -22.684 -46.362 -18.325  0.00  0.00    -0.018 N 
HETATM   18  C   <0> N   1     -22.113 -45.322 -17.701  0.00  0.00     0.722 A 
HETATM   19  N   <0> N   1     -22.760 -44.262 -17.159  0.00  0.00    -0.193 N 
ATOM     20  HN  <0> N   1     -23.777 -44.198 -17.199  1.00  0.00     0.184 HD
HETATM   21  H   <0> N   1     -23.639 -46.534 -18.493  0.00  0.00     0.203 HD
ENDROOT
TORSDOF 0
ENDMDL
MODEL 5
REMARK VINA RESULT:      -8.1      1.603      5.706
REMARK  0 active torsions:
REMARK  status: ('A' for Active; 'I' for Inactive)
REMARK       I    between atoms: C_9  and  N_10 
ROOT
HETATM    1  C   <0> N   1     -21.574 -46.542 -16.308  0.00  0.00     0.069 C 
HETATM    2  C   <0> N   1     -21.653 -47.440 -17.500  0.00  0.00     0.028 A 
HETATM    3  C   <0> N   1     -22.316 -47.000 -18.669  0.00  0.00     0.102 A 
HETATM    4  C   <0> N   1     -22.377 -47.860 -19.774  0.00  0.00     0.284 A 
HETATM    5  O   <0> N   1     -22.937 -47.524 -20.804  0.00  0.00    -0.266 OA
HETATM    6  N   <0> N   1     -21.790 -49.085 -19.662  0.00  0.00    -0.033 N 
HETATM    7  N   <0> N   1     -21.716 -50.057 -20.552  0.00  0.00    -0.107 N 
ATOM      8  HN  <0> N   1     -22.095 -50.058 -21.499  1.00  0.00     0.207 HD
HETATM    9  C   <0> N   1     -21.030 -51.054 -19.939  0.00  0.00     0.724 A 
HETATM   10  N   <0> N   1     -20.717 -52.308 -20.546  0.00  0.00    -0.081 N 
HETATM   11  C   <0> N   1     -21.047 -52.675 -21.791  0.00  0.00     0.246 A 
HETATM   12  O   <0> N   1     -21.667 -51.958 -22.564  0.00  0.00    -0.272 OA
HETATM   13  C   <0> N   1     -20.575 -54.055 -22.135  0.00  0.00     0.113 A 
HETATM   14  C   <0> N   1     -19.866 -54.497 -20.826  0.00  0.00     0.113 A 
HETATM   15  C   <0> N   1     -20.044 -53.298 -19.947  0.00  0.00     0.246 A 
HETATM   16  O   <0> N   1     -19.620 -53.230 -18.803  0.00  0.00    -0.272 OA
HETATM   17  N   <0> N   1     -20.671 -50.719 -18.670  0.00  0.00    -0.018 N 
HETATM   18  C   <0> N   1     -21.170 -49.480 -18.551  0.00  0.00     0.722 A 
HETATM   19  N   <0> N   1     -21.084 -48.685 -17.457  0.00  0.00    -0.193 N 
ATOM     20  HN  <0> N   1     -20.604 -49.008 -16.617  1.00  0.00     0.184 HD
HETATM   21  H   <0> N   1     -20.171 -51.250 -18.009  0.00  0.00     0.203 HD
ENDROOT
TORSDOF 0
ENDMDL
MODEL 6
REMARK VINA RESULT:      -8.1     13.730     17.145
REMARK  0 active torsions:
REMARK  status: ('A' for Active; 'I' for Inactive)
REMARK       I    between atoms: C_9  and  N_10 
ROOT
HETATM    1  C   <0> N   1     -11.198 -32.426 -15.337  0.00  0.00     0.069 C 
HETATM    2  C   <0> N   1     -12.232 -33.301 -14.707  0.00  0.00     0.028 A 
HETATM    3  C   <0> N   1     -13.304 -32.720 -13.990  0.00  0.00     0.102 A 
HETATM    4  C   <0> N   1     -14.262 -33.563 -13.407  0.00  0.00     0.284 A 
HETATM    5  O   <0> N   1     -15.203 -33.107 -12.781  0.00  0.00    -0.266 OA
HETATM    6  N   <0> N   1     -14.107 -34.908 -13.564  0.00  0.00    -0.033 N 
HETATM    7  N   <0> N   1     -14.866 -35.889 -13.114  0.00  0.00    -0.107 N 
ATOM      8  HN  <0> N   1     -15.718 -35.808 -12.561  1.00  0.00     0.207 HD
HETATM    9  C   <0> N   1     -14.270 -37.029 -13.546  0.00  0.00     0.724 A 
HETATM   10  N   <0> N   1     -14.762 -38.344 -13.285  0.00  0.00    -0.081 N 
HETATM   11  C   <0> N   1     -15.868 -38.638 -12.589  0.00  0.00     0.246 A 
HETATM   12  O   <0> N   1     -16.597 -37.793 -12.090  0.00  0.00    -0.272 OA
HETATM   13  C   <0> N   1     -16.117 -40.113 -12.488  0.00  0.00     0.113 A 
HETATM   14  C   <0> N   1     -14.918 -40.705 -13.278  0.00  0.00     0.113 A 
HETATM   15  C   <0> N   1     -14.179 -39.474 -13.704  0.00  0.00     0.246 A 
HETATM   16  O   <0> N   1     -13.151 -39.497 -14.364  0.00  0.00    -0.272 OA
HETATM   17  N   <0> N   1     -13.143 -36.774 -14.264  0.00  0.00    -0.018 N 
HETATM   18  C   <0> N   1     -13.090 -35.435 -14.243  0.00  0.00     0.722 A 
HETATM   19  N   <0> N   1     -12.140 -34.663 -14.824  0.00  0.00    -0.193 N 
ATOM     20  HN  <0> N   1     -11.370 -35.089 -15.341  1.00  0.00     0.184 HD
HETATM   21  H   <0> N   1     -12.525 -37.411 -14.690  0.00  0.00     0.203 HD
ENDROOT
TORSDOF 0
ENDMDL
MODEL 7
REMARK VINA RESULT:      -7.9      6.037      8.696
REMARK  0 active torsions:
REMARK  status: ('A' for Active; 'I' for Inactive)
REMARK       I    between atoms: C_9  and  N_10 
ROOT
HETATM    1  C   <0> N   1     -22.529 -46.372 -17.214  0.00  0.00     0.069 C 
HETATM    2  C   <0> N   1     -21.627 -45.208 -16.960  0.00  0.00     0.028 A 
HETATM    3  C   <0> N   1     -21.480 -44.203 -17.944  0.00  0.00     0.102 A 
HETATM    4  C   <0> N   1     -20.627 -43.121 -17.683  0.00  0.00     0.284 A 
HETATM    5  O   <0> N   1     -20.471 -42.231 -18.501  0.00  0.00    -0.266 OA
HETATM    6  N   <0> N   1     -19.979 -43.096 -16.484  0.00  0.00    -0.033 N 
HETATM    7  N   <0> N   1     -19.136 -42.196 -16.014  0.00  0.00    -0.107 N 
ATOM      8  HN  <0> N   1     -18.818 -41.345 -16.478  1.00  0.00     0.207 HD
HETATM    9  C   <0> N   1     -18.783 -42.644 -14.783  0.00  0.00     0.724 A 
HETATM   10  N   <0> N   1     -17.877 -41.969 -13.910  0.00  0.00    -0.081 N 
HETATM   11  C   <0> N   1     -17.257 -40.812 -14.173  0.00  0.00     0.246 A 
HETATM   12  O   <0> N   1     -17.403 -40.190 -15.216  0.00  0.00    -0.272 OA
HETATM   13  C   <0> N   1     -16.367 -40.360 -13.054  0.00  0.00     0.113 A 
HETATM   14  C   <0> N   1     -16.554 -41.492 -12.008  0.00  0.00     0.113 A 
HETATM   15  C   <0> N   1     -17.520 -42.406 -12.695  0.00  0.00     0.246 A 
HETATM   16  O   <0> N   1     -17.941 -43.442 -12.201  0.00  0.00    -0.272 OA
HETATM   17  N   <0> N   1     -19.397 -43.818 -14.474  0.00  0.00    -0.018 N 
HETATM   18  C   <0> N   1     -20.131 -44.053 -15.571  0.00  0.00     0.722 A 
HETATM   19  N   <0> N   1     -20.944 -45.117 -15.776  0.00  0.00    -0.193 N 
ATOM     20  HN  <0> N   1     -21.045 -45.839 -15.061  1.00  0.00     0.184 HD
HETATM   21  H   <0> N   1     -19.321 -44.357 -13.653  0.00  0.00     0.203 HD
ENDROOT
TORSDOF 0
ENDMDL
MODEL 8
REMARK VINA RESULT:      -7.9      3.570      4.935
REMARK  0 active torsions:
REMARK  status: ('A' for Active; 'I' for Inactive)
REMARK       I    between atoms: C_9  and  N_10 
ROOT
HETATM    1  C   <0> N   1     -23.531 -48.842 -21.821  0.00  0.00     0.069 C 
HETATM    2  C   <0> N   1     -22.557 -48.115 -20.952  0.00  0.00     0.028 A 
HETATM    3  C   <0> N   1     -21.197 -48.505 -20.940  0.00  0.00     0.102 A 
HETATM    4  C   <0> N   1     -20.302 -47.808 -20.116  0.00  0.00     0.284 A 
HETATM    5  O   <0> N   1     -19.122 -48.108 -20.074  0.00  0.00    -0.266 OA
HETATM    6  N   <0> N   1     -20.794 -46.783 -19.364  0.00  0.00    -0.033 N 
HETATM    7  N   <0> N   1     -20.158 -45.989 -18.523  0.00  0.00    -0.107 N 
ATOM      8  HN  <0> N   1     -19.167 -46.007 -18.286  1.00  0.00     0.207 HD
HETATM    9  C   <0> N   1     -21.105 -45.145 -18.042  0.00  0.00     0.724 A 
HETATM   10  N   <0> N   1     -20.852 -44.109 -17.092  0.00  0.00    -0.081 N 
HETATM   11  C   <0> N   1     -19.661 -43.822 -16.550  0.00  0.00     0.246 A 
HETATM   12  O   <0> N   1     -18.634 -44.429 -16.817  0.00  0.00    -0.272 OA
HETATM   13  C   <0> N   1     -19.722 -42.677 -15.585  0.00  0.00     0.113 A 
HETATM   14  C   <0> N   1     -21.226 -42.291 -15.625  0.00  0.00     0.113 A 
HETATM   15  C   <0> N   1     -21.781 -43.274 -16.608  0.00  0.00     0.246 A 
HETATM   16  O   <0> N   1     -22.958 -43.313 -16.935  0.00  0.00    -0.272 OA
HETATM   17  N   <0> N   1     -22.332 -45.401 -18.572  0.00  0.00    -0.018 N 
HETATM   18  C   <0> N   1     -22.078 -46.431 -19.390  0.00  0.00     0.722 A 
HETATM   19  N   <0> N   1     -22.982 -47.074 -20.170  0.00  0.00    -0.193 N 
ATOM     20  HN  <0> N   1     -23.961 -46.787 -20.174  1.00  0.00     0.184 HD
HETATM   21  H   <0> N   1     -23.186 -44.944 -18.398  0.00  0.00     0.203 HD
ENDROOT
TORSDOF 0
ENDMDL
MODEL 9
REMARK VINA RESULT:      -7.6     28.286     31.052
REMARK  0 active torsions:
REMARK  status: ('A' for Active; 'I' for Inactive)
REMARK       I    between atoms: C_9  and  N_10 
ROOT
HETATM    1  C   <0> N   1      -9.855 -26.718  -9.973  0.00  0.00     0.069 C 
HETATM    2  C   <0> N   1     -10.068 -25.343 -10.518  0.00  0.00     0.028 A 
HETATM    3  C   <0> N   1      -9.848 -25.089 -11.892  0.00  0.00     0.102 A 
HETATM    4  C   <0> N   1     -10.053 -23.791 -12.380  0.00  0.00     0.284 A 
HETATM    5  O   <0> N   1      -9.877 -23.526 -13.557  0.00  0.00    -0.266 OA
HETATM    6  N   <0> N   1     -10.458 -22.835 -11.497  0.00  0.00    -0.033 N 
HETATM    7  N   <0> N   1     -10.713 -21.558 -11.714  0.00  0.00    -0.107 N 
ATOM      8  HN  <0> N   1     -10.651 -21.057 -12.599  1.00  0.00     0.207 HD
HETATM    9  C   <0> N   1     -11.076 -21.056 -10.507  0.00  0.00     0.724 A 
HETATM   10  N   <0> N   1     -11.442 -19.695 -10.279  0.00  0.00    -0.081 N 
HETATM   11  C   <0> N   1     -11.484 -18.732 -11.209  0.00  0.00     0.246 A 
HETATM   12  O   <0> N   1     -11.208 -18.918 -12.386  0.00  0.00    -0.272 OA
HETATM   13  C   <0> N   1     -11.907 -17.405 -10.655  0.00  0.00     0.113 A 
HETATM   14  C   <0> N   1     -12.127 -17.730  -9.152  0.00  0.00     0.113 A 
HETATM   15  C   <0> N   1     -11.797 -19.189  -9.090  0.00  0.00     0.246 A 
HETATM   16  O   <0> N   1     -11.847 -19.851  -8.064  0.00  0.00    -0.272 OA
HETATM   17  N   <0> N   1     -11.051 -22.004  -9.532  0.00  0.00    -0.018 N 
HETATM   18  C   <0> N   1     -10.659 -23.095 -10.207  0.00  0.00     0.722 A 
HETATM   19  N   <0> N   1     -10.474 -24.332  -9.687  0.00  0.00    -0.193 N 
ATOM     20  HN  <0> N   1     -10.636 -24.509  -8.695  1.00  0.00     0.184 HD
HETATM   21  H   <0> N   1     -11.267 -21.913  -8.576  0.00  0.00     0.203 HD
ENDROOT
TORSDOF 0
ENDMDL
