MODEL 1
REMARK VINA RESULT:      -8.4      0.000      0.000
REMARK  5 active torsions:
REMARK  status: ('A' for Active; 'I' for Inactive)
REMARK    1  A    between atoms: C_5  and  C_6 
REMARK    2  A    between atoms: N_8  and  C_9 
REMARK    3  A    between atoms: C_9  and  C_11 
REMARK    4  A    between atoms: C_11  and  O_12 
REMARK    5  A    between atoms: C_11  and  O_13 
ROOT
HETATM    1  C   ZIN N   1       5.131 -26.580  -7.370  0.00  0.00     0.218 C 
HETATM    2  C   ZIN N   1       5.493 -26.143  -5.937  0.00  0.00     0.313 C 
HETATM    3  N   ZIN N   1       6.937 -26.355  -5.693  0.00  0.00     0.107 N 
HETATM    4  C   ZIN N   1       7.217 -27.793  -5.931  0.00  0.00     0.299 C 
HETATM    5  C   ZIN N   1       6.816 -28.166  -7.365  0.00  0.00     0.199 C 
HETATM    6  O   ZIN N   1       5.434 -27.948  -7.574  0.00  0.00    -0.375 OA
ENDROOT
BRANCH   1   7
HETATM    7  C   ZIN N   1       3.665 -26.358  -7.589  0.00  0.00     0.128 A 
HETATM    8  N   ZIN N   1       3.088 -26.268  -8.807  0.00  0.00    -0.332 N 
HETATM    9  C   ZIN N   1       1.805 -25.983  -8.514  0.00  0.00     0.093 A 
ATOM     10  HN  ZIN N   1       3.519 -26.387  -9.724  1.00  0.00     0.168 HD
HETATM   11  C   ZIN N   1       0.745 -25.728  -9.532  0.00  0.00     0.090 C 
HETATM   12  N   ZIN N   1       1.612 -25.921  -7.186  0.00  0.00    -0.288 N 
HETATM   13  N   ZIN N   1       2.773 -26.149  -6.600  0.00  0.00    -0.285 N 
HETATM   14  H   ZIN N   1       0.721 -25.717  -6.684  0.00  0.00     0.188 HD
ATOM     15  HN  ZIN N   1       2.958 -26.165  -5.597  1.00  0.00     0.188 HD
ENDBRANCH   1   7
BRANCH   3  16
HETATM   16  C   ZIN N   1       7.371 -25.940  -4.324  0.00  0.00     0.312 C 
HETATM   17  C   ZIN N   1       8.709 -26.583  -3.899  0.00  0.00     0.054 C 
BRANCH  16  18
HETATM   18  C   ZIN N   1       6.352 -26.343  -3.275  0.00  0.00     0.140 C 
BRANCH  18  19
HETATM   19  O   ZIN N   1       6.081 -27.639  -3.025  0.00  0.00    -0.777 OA
HETATM   20  H   ZIN N   1       6.661 -28.308  -3.333  0.00  0.00     0.167 HD
ENDBRANCH  18  19
BRANCH  18  21
HETATM   21  O   ZIN N   1       5.734 -25.391  -2.547  0.00  0.00    -0.777 OA
HETATM   22  H   ZIN N   1       6.240 -24.760  -2.075  0.00  0.00     0.167 HD
ENDBRANCH  18  21
ENDBRANCH  16  18
ENDBRANCH   3  16
TORSDOF 5
ENDMDL
MODEL 2
REMARK VINA RESULT:      -8.4      1.692      2.269
REMARK  5 active torsions:
REMARK  status: ('A' for Active; 'I' for Inactive)
REMARK    1  A    between atoms: C_5  and  C_6 
REMARK    2  A    between atoms: N_8  and  C_9 
REMARK    3  A    between atoms: C_9  and  C_11 
REMARK    4  A    between atoms: C_11  and  O_12 
REMARK    5  A    between atoms: C_11  and  O_13 
ROOT
HETATM    1  C   ZIN N   1       4.423 -26.792  -6.393  0.00  0.00     0.218 C 
HETATM    2  C   ZIN N   1       5.846 -26.207  -6.483  0.00  0.00     0.313 C 
HETATM    3  N   ZIN N   1       6.630 -26.601  -5.291  0.00  0.00     0.107 N 
HETATM    4  C   ZIN N   1       5.894 -26.111  -4.099  0.00  0.00     0.299 C 
HETATM    5  C   ZIN N   1       4.482 -26.712  -4.082  0.00  0.00     0.199 C 
HETATM    6  O   ZIN N   1       3.757 -26.327  -5.234  0.00  0.00    -0.375 OA
ENDROOT
BRANCH   1   7
HETATM    7  C   ZIN N   1       3.651 -26.377  -7.609  0.00  0.00     0.128 A 
HETATM    8  N   ZIN N   1       2.314 -26.188  -7.627  0.00  0.00    -0.332 N 
HETATM    9  C   ZIN N   1       2.065 -25.918  -8.923  0.00  0.00     0.093 A 
ATOM     10  HN  ZIN N   1       1.655 -26.237  -6.851  1.00  0.00     0.168 HD
HETATM   11  C   ZIN N   1       0.704 -25.683  -9.488  0.00  0.00     0.090 C 
HETATM   12  N   ZIN N   1       3.195 -25.927  -9.648  0.00  0.00    -0.288 N 
HETATM   13  N   ZIN N   1       4.193 -26.218  -8.834  0.00  0.00    -0.285 N 
HETATM   14  H   ZIN N   1       3.293 -25.753 -10.673  0.00  0.00     0.188 HD
ATOM     15  HN  ZIN N   1       5.178 -26.305  -9.082  1.00  0.00     0.188 HD
ENDBRANCH   1   7
BRANCH   3  16
HETATM   16  C   ZIN N   1       8.032 -26.084  -5.309  0.00  0.00     0.312 C 
HETATM   17  C   ZIN N   1       9.080 -27.197  -5.524  0.00  0.00     0.054 C 
BRANCH  16  18
HETATM   18  C   ZIN N   1       8.390 -25.408  -3.998  0.00  0.00     0.140 C 
BRANCH  18  19
HETATM   19  O   ZIN N   1       8.742 -26.128  -2.914  0.00  0.00    -0.777 OA
HETATM   20  H   ZIN N   1       8.584 -27.052  -2.894  0.00  0.00     0.167 HD
ENDBRANCH  18  19
BRANCH  18  21
HETATM   21  O   ZIN N   1       8.398 -24.063  -3.923  0.00  0.00    -0.777 OA
HETATM   22  H   ZIN N   1       8.906 -23.634  -3.262  0.00  0.00     0.167 HD
ENDBRANCH  18  21
ENDBRANCH  16  18
ENDBRANCH   3  16
TORSDOF 5
ENDMDL
MODEL 3
REMARK VINA RESULT:      -8.2      1.368      1.748
REMARK  5 active torsions:
REMARK  status: ('A' for Active; 'I' for Inactive)
REMARK    1  A    between atoms: C_5  and  C_6 
REMARK    2  A    between atoms: N_8  and  C_9 
REMARK    3  A    between atoms: C_9  and  C_11 
REMARK    4  A    between atoms: C_11  and  O_12 
REMARK    5  A    between atoms: C_11  and  O_13 
ROOT
HETATM    1  C   ZIN N   1       5.455 -26.664  -7.281  0.00  0.00     0.218 C 
HETATM    2  C   ZIN N   1       5.696 -26.404  -5.781  0.00  0.00     0.313 C 
HETATM    3  N   ZIN N   1       7.116 -26.652  -5.448  0.00  0.00     0.107 N 
HETATM    4  C   ZIN N   1       7.420 -28.053  -5.832  0.00  0.00     0.299 C 
HETATM    5  C   ZIN N   1       7.140 -28.250  -7.328  0.00  0.00     0.199 C 
HETATM    6  O   ZIN N   1       5.778 -28.000  -7.621  0.00  0.00    -0.375 OA
ENDROOT
BRANCH   1   7
HETATM    7  C   ZIN N   1       4.011 -26.409  -7.591  0.00  0.00     0.128 A 
HETATM    8  N   ZIN N   1       3.524 -26.240  -8.840  0.00  0.00    -0.332 N 
HETATM    9  C   ZIN N   1       2.226 -25.955  -8.622  0.00  0.00     0.093 A 
ATOM     10  HN  ZIN N   1       4.019 -26.310  -9.728  1.00  0.00     0.168 HD
HETATM   11  C   ZIN N   1       1.245 -25.625  -9.696  0.00  0.00     0.090 C 
HETATM   12  N   ZIN N   1       1.938 -25.969  -7.311  0.00  0.00    -0.288 N 
HETATM   13  N   ZIN N   1       3.051 -26.248  -6.657  0.00  0.00    -0.285 N 
HETATM   14  H   ZIN N   1       1.014 -25.783  -6.862  0.00  0.00     0.188 HD
ATOM     15  HN  ZIN N   1       3.163 -26.326  -5.647  1.00  0.00     0.188 HD
ENDBRANCH   1   7
BRANCH   3  16
HETATM   16  C   ZIN N   1       7.436 -26.406  -4.008  0.00  0.00     0.312 C 
HETATM   17  C   ZIN N   1       6.245 -25.818  -3.221  0.00  0.00     0.054 C 
BRANCH  16  18
HETATM   18  C   ZIN N   1       8.577 -25.418  -3.855  0.00  0.00     0.140 C 
BRANCH  18  19
HETATM   19  O   ZIN N   1       8.376 -24.092  -3.988  0.00  0.00    -0.777 OA
HETATM   20  H   ZIN N   1       7.927 -23.617  -3.317  0.00  0.00     0.167 HD
ENDBRANCH  18  19
BRANCH  18  21
HETATM   21  O   ZIN N   1       9.809 -25.867  -3.540  0.00  0.00    -0.777 OA
HETATM   22  H   ZIN N   1      10.405 -26.112  -4.219  0.00  0.00     0.167 HD
ENDBRANCH  18  21
ENDBRANCH  16  18
ENDBRANCH   3  16
TORSDOF 5
ENDMDL
MODEL 4
REMARK VINA RESULT:      -8.0     37.484     39.110
REMARK  5 active torsions:
REMARK  status: ('A' for Active; 'I' for Inactive)
REMARK    1  A    between atoms: C_5  and  C_6 
REMARK    2  A    between atoms: N_8  and  C_9 
REMARK    3  A    between atoms: C_9  and  C_11 
REMARK    4  A    between atoms: C_11  and  O_12 
REMARK    5  A    between atoms: C_11  and  O_13 
ROOT
HETATM    1  C   ZIN N   1     -12.101 -59.134 -17.862  0.00  0.00     0.218 C 
HETATM    2  C   ZIN N   1     -10.900 -59.766 -18.592  0.00  0.00     0.313 C 
HETATM    3  N   ZIN N   1      -9.663 -59.023 -18.266  0.00  0.00     0.107 N 
HETATM    4  C   ZIN N   1      -9.882 -57.610 -18.662  0.00  0.00     0.299 C 
HETATM    5  C   ZIN N   1     -11.101 -57.048 -17.918  0.00  0.00     0.199 C 
HETATM    6  O   ZIN N   1     -12.268 -57.780 -18.240  0.00  0.00    -0.375 OA
ENDROOT
BRANCH   1   7
HETATM    7  C   ZIN N   1     -13.340 -59.903 -18.210  0.00  0.00     0.128 A 
HETATM    8  N   ZIN N   1     -13.546 -61.196 -17.878  0.00  0.00    -0.332 N 
HETATM    9  C   ZIN N   1     -14.724 -61.475 -18.466  0.00  0.00     0.093 A 
ATOM     10  HN  ZIN N   1     -12.953 -61.809 -17.319  1.00  0.00     0.168 HD
HETATM   11  C   ZIN N   1     -15.380 -62.815 -18.445  0.00  0.00     0.090 C 
HETATM   12  N   ZIN N   1     -15.216 -60.401 -19.106  0.00  0.00    -0.288 N 
HETATM   13  N   ZIN N   1     -14.352 -59.414 -18.955  0.00  0.00    -0.285 N 
HETATM   14  H   ZIN N   1     -16.107 -60.336 -19.644  0.00  0.00     0.188 HD
ATOM     15  HN  ZIN N   1     -14.434 -58.468 -19.327  1.00  0.00     0.188 HD
ENDBRANCH   1   7
BRANCH   3  16
HETATM   16  C   ZIN N   1      -8.446 -59.585 -18.927  0.00  0.00     0.312 C 
HETATM   17  C   ZIN N   1      -8.763 -60.779 -19.853  0.00  0.00     0.054 C 
BRANCH  16  18
HETATM   18  C   ZIN N   1      -7.446 -60.094 -17.905  0.00  0.00     0.140 C 
BRANCH  18  19
HETATM   19  O   ZIN N   1      -7.033 -59.316 -16.884  0.00  0.00    -0.777 OA
HETATM   20  H   ZIN N   1      -6.956 -58.389 -17.003  0.00  0.00     0.167 HD
ENDBRANCH  18  19
BRANCH  18  21
HETATM   21  O   ZIN N   1      -6.990 -61.359 -17.991  0.00  0.00    -0.777 OA
HETATM   22  H   ZIN N   1      -7.300 -61.923 -18.672  0.00  0.00     0.167 HD
ENDBRANCH  18  21
ENDBRANCH  16  18
ENDBRANCH   3  16
TORSDOF 5
ENDMDL
MODEL 5
REMARK VINA RESULT:      -8.0     37.151     38.863
REMARK  5 active torsions:
REMARK  status: ('A' for Active; 'I' for Inactive)
REMARK    1  A    between atoms: C_5  and  C_6 
REMARK    2  A    between atoms: N_8  and  C_9 
REMARK    3  A    between atoms: C_9  and  C_11 
REMARK    4  A    between atoms: C_11  and  O_12 
REMARK    5  A    between atoms: C_11  and  O_13 
ROOT
HETATM    1  C   ZIN N   1      -8.609 -60.708 -18.539  0.00  0.00     0.218 C 
HETATM    2  C   ZIN N   1      -9.866 -59.818 -18.541  0.00  0.00     0.313 C 
HETATM    3  N   ZIN N   1     -11.077 -60.653 -18.701  0.00  0.00     0.107 N 
HETATM    4  C   ZIN N   1     -10.923 -61.413 -19.967  0.00  0.00     0.299 C 
HETATM    5  C   ZIN N   1      -9.645 -62.260 -19.908  0.00  0.00     0.199 C 
HETATM    6  O   ZIN N   1      -8.504 -61.439 -19.748  0.00  0.00    -0.375 OA
ENDROOT
BRANCH   1   7
HETATM    7  C   ZIN N   1      -7.399 -59.839 -18.379  0.00  0.00     0.128 A 
HETATM    8  N   ZIN N   1      -7.398 -58.657 -17.724  0.00  0.00    -0.332 N 
HETATM    9  C   ZIN N   1      -6.144 -58.207 -17.915  0.00  0.00     0.093 A 
ATOM     10  HN  ZIN N   1      -8.161 -58.215 -17.213  1.00  0.00     0.168 HD
HETATM   11  C   ZIN N   1      -5.638 -56.891 -17.428  0.00  0.00     0.090 C 
HETATM   12  N   ZIN N   1      -5.417 -59.079 -18.632  0.00  0.00    -0.288 N 
HETATM   13  N   ZIN N   1      -6.197 -60.102 -18.932  0.00  0.00    -0.285 N 
HETATM   14  H   ZIN N   1      -4.420 -58.984 -18.926  0.00  0.00     0.188 HD
ATOM     15  HN  ZIN N   1      -5.941 -60.927 -19.473  1.00  0.00     0.188 HD
ENDBRANCH   1   7
BRANCH   3  16
HETATM   16  C   ZIN N   1     -12.345 -59.862 -18.698  0.00  0.00     0.312 C 
HETATM   17  C   ZIN N   1     -12.169 -58.449 -18.102  0.00  0.00     0.054 C 
BRANCH  16  18
HETATM   18  C   ZIN N   1     -13.420 -60.542 -17.871  0.00  0.00     0.140 C 
BRANCH  18  19
HETATM   19  O   ZIN N   1     -14.712 -60.164 -17.957  0.00  0.00    -0.777 OA
HETATM   20  H   ZIN N   1     -15.005 -59.661 -18.692  0.00  0.00     0.167 HD
ENDBRANCH  18  19
BRANCH  18  21
HETATM   21  O   ZIN N   1     -13.090 -61.569 -17.064  0.00  0.00    -0.777 OA
HETATM   22  H   ZIN N   1     -13.292 -62.448 -17.319  0.00  0.00     0.167 HD
ENDBRANCH  18  21
ENDBRANCH  16  18
ENDBRANCH   3  16
TORSDOF 5
ENDMDL
MODEL 6
REMARK VINA RESULT:      -7.9     36.121     37.566
REMARK  5 active torsions:
REMARK  status: ('A' for Active; 'I' for Inactive)
REMARK    1  A    between atoms: C_5  and  C_6 
REMARK    2  A    between atoms: N_8  and  C_9 
REMARK    3  A    between atoms: C_9  and  C_11 
REMARK    4  A    between atoms: C_11  and  O_12 
REMARK    5  A    between atoms: C_11  and  O_13 
ROOT
HETATM    1  C   ZIN N   1      -9.681 -59.926 -18.813  0.00  0.00     0.218 C 
HETATM    2  C   ZIN N   1      -8.958 -58.604 -18.490  0.00  0.00     0.313 C 
HETATM    3  N   ZIN N   1      -7.549 -58.677 -18.936  0.00  0.00     0.107 N 
HETATM    4  C   ZIN N   1      -6.931 -59.839 -18.249  0.00  0.00     0.299 C 
HETATM    5  C   ZIN N   1      -7.709 -61.116 -18.594  0.00  0.00     0.199 C 
HETATM    6  O   ZIN N   1      -9.053 -61.017 -18.165  0.00  0.00    -0.375 OA
ENDROOT
BRANCH   1   7
HETATM    7  C   ZIN N   1     -11.103 -59.826 -18.350  0.00  0.00     0.128 A 
HETATM    8  N   ZIN N   1     -12.124 -60.531 -18.886  0.00  0.00    -0.332 N 
HETATM    9  C   ZIN N   1     -13.198 -60.056 -18.227  0.00  0.00     0.093 A 
ATOM     10  HN  ZIN N   1     -12.089 -61.247 -19.610  1.00  0.00     0.168 HD
HETATM   11  C   ZIN N   1     -14.603 -60.479 -18.492  0.00  0.00     0.090 C 
HETATM   12  N   ZIN N   1     -12.844 -59.124 -17.327  0.00  0.00    -0.288 N 
HETATM   13  N   ZIN N   1     -11.534 -58.970 -17.402  0.00  0.00    -0.285 N 
HETATM   14  H   ZIN N   1     -13.471 -58.592 -16.684  0.00  0.00     0.188 HD
ATOM     15  HN  ZIN N   1     -10.962 -58.331 -16.850  1.00  0.00     0.188 HD
ENDBRANCH   1   7
BRANCH   3  16
HETATM   16  C   ZIN N   1      -6.780 -57.423 -18.671  0.00  0.00     0.312 C 
HETATM   17  C   ZIN N   1      -5.609 -57.217 -19.655  0.00  0.00     0.054 C 
BRANCH  16  18
HETATM   18  C   ZIN N   1      -6.173 -57.429 -17.280  0.00  0.00     0.140 C 
BRANCH  18  19
HETATM   19  O   ZIN N   1      -4.869 -57.715 -17.088  0.00  0.00    -0.777 OA
HETATM   20  H   ZIN N   1      -4.261 -57.027 -16.901  0.00  0.00     0.167 HD
ENDBRANCH  18  19
BRANCH  18  21
HETATM   21  O   ZIN N   1      -6.936 -57.103 -16.218  0.00  0.00    -0.777 OA
HETATM   22  H   ZIN N   1      -6.742 -56.333 -15.721  0.00  0.00     0.167 HD
ENDBRANCH  18  21
ENDBRANCH  16  18
ENDBRANCH   3  16
TORSDOF 5
ENDMDL
MODEL 7
REMARK VINA RESULT:      -7.8     36.319     37.953
REMARK  5 active torsions:
REMARK  status: ('A' for Active; 'I' for Inactive)
REMARK    1  A    between atoms: C_5  and  C_6 
REMARK    2  A    between atoms: N_8  and  C_9 
REMARK    3  A    between atoms: C_9  and  C_11 
REMARK    4  A    between atoms: C_11  and  O_12 
REMARK    5  A    between atoms: C_11  and  O_13 
ROOT
HETATM    1  C   ZIN N   1     -11.372 -58.203 -17.685  0.00  0.00     0.218 C 
HETATM    2  C   ZIN N   1     -10.228 -58.753 -18.558  0.00  0.00     0.313 C 
HETATM    3  N   ZIN N   1      -8.969 -58.038 -18.250  0.00  0.00     0.107 N 
HETATM    4  C   ZIN N   1      -9.214 -56.594 -18.488  0.00  0.00     0.299 C 
HETATM    5  C   ZIN N   1     -10.376 -56.115 -17.606  0.00  0.00     0.199 C 
HETATM    6  O   ZIN N   1     -11.564 -56.819 -17.915  0.00  0.00    -0.375 OA
ENDROOT
BRANCH   1   7
HETATM    7  C   ZIN N   1     -12.634 -58.940 -18.018  0.00  0.00     0.128 A 
HETATM    8  N   ZIN N   1     -12.868 -60.227 -17.681  0.00  0.00    -0.332 N 
HETATM    9  C   ZIN N   1     -14.060 -60.478 -18.255  0.00  0.00     0.093 A 
ATOM     10  HN  ZIN N   1     -12.285 -60.855 -17.129  1.00  0.00     0.168 HD
HETATM   11  C   ZIN N   1     -14.748 -61.801 -18.225  0.00  0.00     0.090 C 
HETATM   12  N   ZIN N   1     -14.531 -59.393 -18.891  0.00  0.00    -0.288 N 
HETATM   13  N   ZIN N   1     -13.641 -58.427 -18.752  0.00  0.00    -0.285 N 
HETATM   14  H   ZIN N   1     -15.427 -59.306 -19.420  0.00  0.00     0.188 HD
ATOM     15  HN  ZIN N   1     -13.705 -57.480 -19.125  1.00  0.00     0.188 HD
ENDBRANCH   1   7
BRANCH   3  16
HETATM   16  C   ZIN N   1      -7.803 -58.526 -19.048  0.00  0.00     0.312 C 
HETATM   17  C   ZIN N   1      -8.166 -59.696 -19.987  0.00  0.00     0.054 C 
BRANCH  16  18
HETATM   18  C   ZIN N   1      -6.689 -59.031 -18.149  0.00  0.00     0.140 C 
BRANCH  18  19
HETATM   19  O   ZIN N   1      -6.889 -59.224 -16.830  0.00  0.00    -0.777 OA
HETATM   20  H   ZIN N   1      -6.156 -59.313 -16.254  0.00  0.00     0.167 HD
ENDBRANCH  18  19
BRANCH  18  21
HETATM   21  O   ZIN N   1      -5.489 -59.332 -18.682  0.00  0.00    -0.777 OA
HETATM   22  H   ZIN N   1      -4.774 -59.566 -18.124  0.00  0.00     0.167 HD
ENDBRANCH  18  21
ENDBRANCH  16  18
ENDBRANCH   3  16
TORSDOF 5
ENDMDL
MODEL 8
REMARK VINA RESULT:      -7.5      1.770      2.137
REMARK  5 active torsions:
REMARK  status: ('A' for Active; 'I' for Inactive)
REMARK    1  A    between atoms: C_5  and  C_6 
REMARK    2  A    between atoms: N_8  and  C_9 
REMARK    3  A    between atoms: C_9  and  C_11 
REMARK    4  A    between atoms: C_11  and  O_12 
REMARK    5  A    between atoms: C_11  and  O_13 
ROOT
HETATM    1  C   ZIN N   1       6.762 -27.016  -7.252  0.00  0.00     0.218 C 
HETATM    2  C   ZIN N   1       7.479 -26.251  -6.123  0.00  0.00     0.313 C 
HETATM    3  N   ZIN N   1       8.939 -26.475  -6.209  0.00  0.00     0.107 N 
HETATM    4  C   ZIN N   1       9.165 -27.939  -6.127  0.00  0.00     0.299 C 
HETATM    5  C   ZIN N   1       8.409 -28.642  -7.263  0.00  0.00     0.199 C 
HETATM    6  O   ZIN N   1       7.018 -28.406  -7.163  0.00  0.00    -0.375 OA
ENDROOT
BRANCH   1   7
HETATM    7  C   ZIN N   1       5.287 -26.774  -7.142  0.00  0.00     0.128 A 
HETATM    8  N   ZIN N   1       4.444 -26.753  -8.197  0.00  0.00    -0.332 N 
HETATM    9  C   ZIN N   1       3.266 -26.418  -7.635  0.00  0.00     0.093 A 
ATOM     10  HN  ZIN N   1       4.649 -26.942  -9.177  1.00  0.00     0.168 HD
HETATM   11  C   ZIN N   1       2.001 -26.206  -8.395  0.00  0.00     0.090 C 
HETATM   12  N   ZIN N   1       3.387 -26.264  -6.306  0.00  0.00    -0.288 N 
HETATM   13  N   ZIN N   1       4.651 -26.480  -5.990  0.00  0.00    -0.285 N 
HETATM   14  H   ZIN N   1       2.639 -26.005  -5.627  0.00  0.00     0.188 HD
ATOM     15  HN  ZIN N   1       5.064 -26.434  -5.059  1.00  0.00     0.188 HD
ENDBRANCH   1   7
BRANCH   3  16
HETATM   16  C   ZIN N   1       9.710 -25.751  -5.152  0.00  0.00     0.312 C 
HETATM   17  C   ZIN N   1      10.829 -26.612  -4.528  0.00  0.00     0.054 C 
BRANCH  16  18
HETATM   18  C   ZIN N   1       8.812 -25.324  -4.006  0.00  0.00     0.140 C 
BRANCH  18  19
HETATM   19  O   ZIN N   1       8.469 -26.186  -3.028  0.00  0.00    -0.777 OA
HETATM   20  H   ZIN N   1       9.119 -26.742  -2.644  0.00  0.00     0.167 HD
ENDBRANCH  18  19
BRANCH  18  21
HETATM   21  O   ZIN N   1       8.379 -24.050  -3.938  0.00  0.00    -0.777 OA
HETATM   22  H   ZIN N   1       7.490 -23.869  -3.704  0.00  0.00     0.167 HD
ENDBRANCH  18  21
ENDBRANCH  16  18
ENDBRANCH   3  16
TORSDOF 5
ENDMDL
MODEL 9
REMARK VINA RESULT:      -7.3     42.497     44.249
REMARK  5 active torsions:
REMARK  status: ('A' for Active; 'I' for Inactive)
REMARK    1  A    between atoms: C_5  and  C_6 
REMARK    2  A    between atoms: N_8  and  C_9 
REMARK    3  A    between atoms: C_9  and  C_11 
REMARK    4  A    between atoms: C_11  and  O_12 
REMARK    5  A    between atoms: C_11  and  O_13 
ROOT
HETATM    1  C   ZIN N   1     -14.389 -63.432 -21.893  0.00  0.00     0.218 C 
HETATM    2  C   ZIN N   1     -14.918 -62.738 -20.623  0.00  0.00     0.313 C 
HETATM    3  N   ZIN N   1     -14.098 -61.544 -20.321  0.00  0.00     0.107 N 
HETATM    4  C   ZIN N   1     -12.694 -62.000 -20.171  0.00  0.00     0.299 C 
HETATM    5  C   ZIN N   1     -12.238 -62.699 -21.459  0.00  0.00     0.199 C 
HETATM    6  O   ZIN N   1     -13.041 -63.832 -21.728  0.00  0.00    -0.375 OA
ENDROOT
BRANCH   1   7
HETATM    7  C   ZIN N   1     -15.234 -64.638 -22.174  0.00  0.00     0.128 A 
HETATM    8  N   ZIN N   1     -15.952 -65.293 -21.236  0.00  0.00    -0.332 N 
HETATM    9  C   ZIN N   1     -16.462 -66.335 -21.919  0.00  0.00     0.093 A 
ATOM     10  HN  ZIN N   1     -16.076 -65.057 -20.252  1.00  0.00     0.168 HD
HETATM   11  C   ZIN N   1     -17.300 -67.410 -21.314  0.00  0.00     0.090 C 
HETATM   12  N   ZIN N   1     -16.087 -66.303 -23.208  0.00  0.00    -0.288 N 
HETATM   13  N   ZIN N   1     -15.313 -65.245 -23.375  0.00  0.00    -0.285 N 
HETATM   14  H   ZIN N   1     -16.335 -66.984 -23.959  0.00  0.00     0.188 HD
ATOM     15  HN  ZIN N   1     -14.866 -64.947 -24.241  1.00  0.00     0.188 HD
ENDBRANCH   1   7
BRANCH   3  16
HETATM   16  C   ZIN N   1     -14.557 -60.804 -19.107  0.00  0.00     0.312 C 
HETATM   17  C   ZIN N   1     -13.827 -59.458 -18.911  0.00  0.00     0.054 C 
BRANCH  16  18
HETATM   18  C   ZIN N   1     -14.313 -61.608 -17.843  0.00  0.00     0.140 C 
BRANCH  18  19
HETATM   19  O   ZIN N   1     -13.122 -61.577 -17.214  0.00  0.00    -0.777 OA
HETATM   20  H   ZIN N   1     -12.482 -60.936 -17.453  0.00  0.00     0.167 HD
ENDBRANCH  18  19
BRANCH  18  21
HETATM   21  O   ZIN N   1     -15.316 -62.337 -17.314  0.00  0.00    -0.777 OA
HETATM   22  H   ZIN N   1     -15.966 -62.715 -17.873  0.00  0.00     0.167 HD
ENDBRANCH  18  21
ENDBRANCH  16  18
ENDBRANCH   3  16
TORSDOF 5
ENDMDL
